 Abaqus/Standard 6.12-1                  DATE 14-Ê®Ò»ÔÂ-2017 TIME 11:54:01
 SUMMARY OF JOB INFORMATION:
 STEP  INC ATT SEVERE EQUIL TOTAL  TOTAL      STEP       INC OF       DOF    IF
               DISCON ITERS ITERS  TIME/    TIME/LPF    TIME/LPF    MONITOR RIKS
               ITERS               FREQ
   1     1   1     0     2     2  0.000100   0.000100   0.0001000 
   1     2   1     0     1     1  0.000200   0.000200   0.0001000 
   1     3   1     0     1     1  0.000300   0.000300   0.0001000 
   1     4   1     0     1     1  0.000500   0.000500   0.0002000 
   1     5   1     0     1     1  0.000900   0.000900   0.0004000 
   1     6   1     0     1     1  0.00170    0.00170    0.0008000 
   1     7   1     0     1     1  0.00330    0.00330    0.001600  
   1     8   1     0     1     1  0.00650    0.00650    0.003200  
   1     9   1     0     1     1  0.0129     0.0129     0.006400  
   1    10   1     0     1     1  0.0257     0.0257     0.01280   
   1    11   1     0     1     1  0.0513     0.0513     0.02560   
   1    12   1     0     1     1  0.103      0.103      0.05120   
   1    13   1     0     1     1  0.205      0.205      0.1024    
   1    14   1     0     1     1  0.410      0.410      0.2048    
   1    15   1     0     1     1  0.819      0.819      0.4096    
   1    16   1     0     1     1  1.64       1.64       0.8192    
   1    17   1U    0     1     1  1.64       1.64       1.638     
   1    17   2     0     1     1  2.75       2.75       1.113     
   1    18   1     0     1     1  3.86       3.86       1.113     
   1    19   1     0     1     1  4.98       4.98       1.113     
   1    20   1     0     1     1  6.00       6.00       1.023     
   1    21   1U    0     1     1  6.00       6.00       1.683     
   1    21   2     0     1     1  7.23       7.23       1.233     
   1    22   1     0     1     1  8.47       8.47       1.233     
   1    23   1     0     1     1  9.70       9.70       1.233     
   1    24   1     0     1     1  11.3       11.3       1.626     
   1    25   1     0     1     1  12.0       12.0       0.6749    
   1    26   1     0     1     1  13.6       13.6       1.626     
   1    27   1     0     1     1  15.3       15.3       1.626     
   1    28   1     0     1     1  16.9       16.9       1.626     
   1    29   1     0     1     1  18.0       18.0       1.121     
   1    30   1     0     1     1  19.7       19.7       1.665     
   1    31   1     0     1     1  21.3       21.3       1.665     
   1    32   1     0     1     1  23.0       23.0       1.665     
   1    33   1     0     1     1  24.0       24.0       1.005     
   1    34   1U    0     1     1  24.0       24.0       1.889     
   1    34   2     0     1     1  25.6       25.6       1.604     
   1    35   1     0     1     1  27.2       27.2       1.604     
   1    36   1     0     1     1  28.8       28.8       1.604     
   1    37   1     0     1     1  30.0       30.0       1.187     
   1    38   1U    0     1     1  30.0       30.0       2.033     
   1    38   2     0     1     1  31.6       31.6       1.593     
   1    39   1     0     1     1  33.2       33.2       1.593     
   1    40   1     0     1     1  34.8       34.8       1.593     
   1    41   1     0     1     1  36.0       36.0       1.222     
   1    42   1U    0     1     1  36.0       36.0       2.154     
   1    42   2     0     1     1  37.6       37.6       1.557     
   1    43   1     0     1     1  39.1       39.1       1.557     
   1    44   1     0     1     1  40.7       40.7       1.557     
   1    45   1     0     1     1  42.0       42.0       1.329     
   1    46   1U    0     1     1  42.0       42.0       2.214     
   1    46   2     0     1     1  43.5       43.5       1.518     
   1    47   1     0     1     1  45.0       45.0       1.518     
   1    48   1     0     1     1  46.6       46.6       1.518     
   1    49   1     0     1     1  48.0       48.0       1.446     
   1    50   1U    0     1     1  48.0       48.0       2.213     
   1    50   2     0     1     1  49.5       49.5       1.492     
   1    51   1     0     1     1  51.0       51.0       1.492     
   1    52   1     0     1     1  52.5       52.5       1.492     
   1    53   1     0     1     1  54.0       54.0       1.524     
   1    54   1U    0     1     1  54.0       54.0       2.181     
   1    54   2     0     1     1  55.4       55.4       1.431     
   1    55   1     0     1     1  56.9       56.9       1.431     
   1    56   1     0     1     1  58.3       58.3       1.431     
   1    57   1     0     1     1  60.0       60.0       1.708     
   1    58   1     0     1     1  61.7       61.7       1.708     
   1    59   1     0     1     1  63.4       63.4       1.708     
   1    60   1     0     1     1  65.1       65.1       1.708     
   1    61   1     0     1     1  66.0       66.0       0.8762    
   1    62   1     0     1     1  67.8       67.8       1.752     
   1    63   1     0     1     1  69.5       69.5       1.752     
   1    64   1     0     1     1  71.3       71.3       1.752     
   1    65   1     0     1     1  72.0       72.0       0.7430    
   1    66   1     0     1     1  73.8       73.8       1.752     
   1    67   1U    0     1     1  73.8       73.8       1.752     
   1    67   2     0     1     1  75.2       75.2       1.471     
   1    68   1     0     1     1  76.7       76.7       1.471     
   1    69   1     0     1     1  78.0       78.0       1.306     
   1    70   1U    0     1     1  78.0       78.0       1.915     
   1    70   2     0     1     1  79.2       79.2       1.216     
   1    71   1     0     1     1  80.4       80.4       1.216     
   1    72   1     0     1     1  81.6       81.6       1.216     
   1    73   1U    0     1     1  81.6       81.6       2.352     
   1    73   2     0     1     1  82.5       82.5       0.8490    
   1    74   1     0     1     1  83.3       83.3       0.8490    
   1    75   1     0     1     1  84.0       84.0       0.6541    
   1    76   1     0     1     1  85.3       85.3       1.308     
   1    77   1U    0     1     1  85.3       85.3       2.616     
   1    77   2     0     1     1  86.0       86.0       0.6710    
   1    78   1     0     1     1  86.7       86.7       0.6710    
   1    79   1     0     1     1  87.3       87.3       0.6710    
   1    80   1     0     1     1  88.7       88.7       1.342     
   1    81   1     0     1     1  90.0       90.0       1.337     
   1    82   1U    0     1     1  90.0       90.0       2.684     
   1    82   2     0     1     1  90.6       90.6       0.5838    
   1    83   1     0     1     1  91.2       91.2       0.5838    
   1    84   1     0     1     1  91.8       91.8       0.5838    
   1    85   1     0     1     1  92.9       92.9       1.168     
   1    86   1U    0     1     1  92.9       92.9       2.335     
   1    86   2     0     1     1  93.7       93.7       0.7457    
   1    87   1     0     1     1  94.4       94.4       0.7457    
   1    88   1     0     1     1  95.2       95.2       0.7457    
   1    89   1     0     1     1  96.0       96.0       0.8439    
   1    90   1U    0     1     1  96.0       96.0       1.688     
   1    90   2     0     1     1  97.0       97.0       1.010     
   1    91   1     0     1     1  98.0       98.0       1.010     
   1    92   1     0     1     1  99.0       99.0       1.010     
   1    93   1U    0     1     1  99.0       99.0       2.019     
   1    93   2     0     1     1  99.7       99.7       0.7110    
   1    94   1     0     1     1  100.       100.       0.7110    
   1    95   1     0     1     1  101.       101.       0.7110    
   1    96   1     0     1     1  102.       102.       0.8380    
   1    97   1U    0     1     1  102.       102.       1.676     
   1    97   2     0     1     1  103.       103.       0.9115    
   1    98   1     0     1     1  104.       104.       0.9115    
   1    99   1     0     1     1  105.       105.       0.9115    
   1   100   1U    0     1     1  105.       105.       1.823     
   1   100   2     0     1     1  105.       105.       0.7475    
   1   101   1     0     1     1  106.       106.       0.7475    
   1   102   1     0     1     1  107.       107.       0.7475    
   1   103   1     0     1     1  108.       108.       1.023     
                          
 THE ANALYSIS HAS COMPLETED SUCCESSFULLY
