1

   Abaqus 6.12-1                                  Date 14-Ê®Ò»ÔÂ-2017   Time 12:03:48
   For use by  under license from Dassault Systemes or its subsidiary.

                                                                                 
                                                                                 
 STEP    1     INCREMENT     1     STEP TIME    0.00    


                        S T E P       1     V I S C O   A N A L Y S I S


                                                                                          

     AUTOMATIC TIME CONTROL WITH -
          A SUGGESTED INITIAL TIME INCREMENT OF                1.000E-04
          AND A TOTAL TIME PERIOD OF                            108.    
          THE MINIMUM TIME INCREMENT ALLOWED IS                1.000E-11
          THE MAXIMUM TIME INCREMENT ALLOWED IS                 4.00    

     THE SIZE OF THE TIME INCREMENT IS CONTROLLED BY -
          THE PARAMETER  CETOL                                 1.000E-05

                              IMPLICIT TIME INTEGRATION WILL BE USED

 CONVERGENCE TOLERANCE PARAMETERS FOR FORCE    
     CRITERION FOR RESIDUAL FORCE     FOR A NONLINEAR PROBLEM          5.000E-03
     CRITERION FOR DISP.    CORRECTION IN A NONLINEAR PROBLEM          1.000E-02
     INITIAL VALUE OF TIME AVERAGE FORCE                               1.000E-02
     AVERAGE FORCE     IS TIME AVERAGE FORCE    
     ALTERNATE CRIT. FOR RESIDUAL FORCE     FOR A NONLINEAR PROBLEM    2.000E-02
     CRITERION FOR ZERO FORCE     RELATIVE TO TIME AVRG. FORCE         1.000E-05
     CRITERION FOR RESIDUAL FORCE     WHEN THERE IS ZERO FLUX          1.000E-05
     CRITERION FOR DISP.    CORRECTION WHEN THERE IS ZERO FLUX         1.000E-03
     CRITERION FOR RESIDUAL FORCE     FOR A LINEAR INCREMENT           1.000E-08
     FIELD CONVERSION RATIO                                             1.00    
     CRITERION FOR ZERO FORCE     REL. TO TIME AVRG. MAX. FORCE        1.000E-05
     CRITERION FOR ZERO DISP.    RELATIVE TO CHARACTERISTIC LENGTH     1.000E-08

 CONVERGENCE TOLERANCE PARAMETERS FOR MOMENT   
     CRITERION FOR RESIDUAL MOMENT    FOR A NONLINEAR PROBLEM          5.000E-03
     CRITERION FOR ROTATION CORRECTION IN A NONLINEAR PROBLEM          1.000E-02
     INITIAL VALUE OF TIME AVERAGE MOMENT                              1.000E-02
     AVERAGE MOMENT    IS TIME AVERAGE MOMENT   
     ALTERNATE CRIT. FOR RESIDUAL MOMENT    FOR A NONLINEAR PROBLEM    2.000E-02
     CRITERION FOR ZERO MOMENT    RELATIVE TO TIME AVRG. MOMENT        1.000E-05
     CRITERION FOR RESIDUAL MOMENT    WHEN THERE IS ZERO FLUX          1.000E-05
     CRITERION FOR ROTATION CORRECTION WHEN THERE IS ZERO FLUX         1.000E-03
     CRITERION FOR RESIDUAL MOMENT    FOR A LINEAR INCREMENT           1.000E-08
     FIELD CONVERSION RATIO                                             1.00    
     CRITERION FOR ZERO MOMENT    REL. TO TIME AVRG. MAX. MOMENT       1.000E-05

     VOLUMETRIC STRAIN COMPATIBILITY TOLERANCE FOR HYBRID SOLIDS       1.000E-05
     AXIAL STRAIN COMPATIBILITY TOLERANCE FOR HYBRID BEAMS             1.000E-05
     TRANS. SHEAR STRAIN COMPATIBILITY TOLERANCE FOR HYBRID BEAMS      1.000E-05
     SOFT CONTACT CONSTRAINT COMPATIBILITY TOLERANCE FOR P>P0          5.000E-03
     SOFT CONTACT CONSTRAINT COMPATIBILITY TOLERANCE FOR P=0.0         0.100    
     CONTACT FORCE ERROR TOLERANCE FOR CONVERT SDI=YES                 1.00    
     DISPLACEMENT COMPATIBILITY TOLERANCE FOR DCOUP ELEMENTS           1.000E-05
     ROTATION COMPATIBILITY TOLERANCE FOR DCOUP ELEMENTS               1.000E-05

 EQUILIBRIUM WILL BE CHECKED FOR SEVERE DISCONTINUITY ITERATIONS

 TIME INCREMENTATION CONTROL PARAMETERS:
     FIRST EQUILIBRIUM ITERATION FOR CONSECUTIVE DIVERGENCE CHECK              4
     EQUILIBRIUM ITERATION AT WHICH LOG. CONVERGENCE RATE CHECK BEGINS         8
     EQUILIBRIUM ITERATION AFTER WHICH ALTERNATE RESIDUAL IS USED              9
     MAXIMUM EQUILIBRIUM ITERATIONS ALLOWED                                   16
     EQUILIBRIUM ITERATION COUNT FOR CUT-BACK IN NEXT INCREMENT               10
     MAXIMUM EQUILIB. ITERS IN TWO INCREMENTS FOR TIME INCREMENT INCREASE      4
     MAXIMUM ITERATIONS FOR SEVERE DISCONTINUITIES                            50
     MAXIMUM CUT-BACKS ALLOWED IN AN INCREMENT                                 5
     MAXIMUM DISCON. ITERS IN TWO INCREMENTS FOR TIME INCREMENT INCREASE      50
     MAXIMUM CONTACT AUGMENTATIONS FOR *SURFACE BEHAVIOR,AUGMENTED LAGRANGE   50
     CONSECUTIVE INCS MEETING TIME INTEG. TOL. FOR TIME INC. INCREASE          3
     CUT-BACK FACTOR AFTER DIVERGENCE                                 0.2500    
     CUT-BACK FACTOR FOR TOO SLOW CONVERGENCE                         0.5000    
     CUT-BACK FACTOR AFTER TOO MANY EQUILIBRIUM ITERATIONS            0.7500    
     CUT-BACK FACTOR AFTER TOO MANY SEVERE DISCONTINUITY ITERATIONS   0.2500    
     CUT-BACK FACTOR AFTER PROBLEMS IN ELEMENT ASSEMBLY               0.2500    
     INCREASE FACTOR AFTER TWO INCREMENTS THAT CONVERGE QUICKLY        1.500    
     MAX. TIME INCREMENT INCREASE FACTOR ALLOWED                       1.500    
     MAX. TIME INCREMENT INCREASE FACTOR ALLOWED (DYNAMICS)            1.250    
     MAX. TIME INCREMENT INCREASE FACTOR ALLOWED (DIFFUSION)           2.000    
     MINIMUM TIME INCREMENT RATIO FOR EXTRAPOLATION TO OCCUR          0.1000    
     CUT-BACK FACTOR WHEN TIME INTEGRATION ACCURACY TOL. EXCEEDED     0.8500    
     MAX. RATIO OF TIME INTEG. MEASURE TO TOL. FOR TIME INC. INCREASE 0.7500    
     INCREASE FACTOR FOR TIME INCREMENT WHEN POSSIBLE                 0.8000    
     MIN. TIME INC. INCREASE FACTOR IN LINEAR TRANSIENT PROBLEMS      0.9500    
     MAX. RATIO OF TIME INCREMENT TO STABILITY LIMIT                   1.000    
     FRACTION OF STABILITY LIMIT FOR NEW TIME INCREMENT               0.9500    
     TIME INCREMENT INCREASE FACTOR BEFORE A TIME POINT                1.000    
     GLOBAL STABILIZATION CONTROL IS NOT USED

          PRINT OF INCREMENT NUMBER, TIME, ETC., EVERY    1  INCREMENTS

     THE MAXIMUM NUMBER OF INCREMENTS IN THIS STEP IS                  100000

          LARGE DISPLACEMENT THEORY WILL BE USED

     LINEAR EXTRAPOLATION WILL BE USED

     CHARACTERISTIC ELEMENT LENGTH     0.450    

     DETAILS REGARDING ACTUAL SOLUTION WAVEFRONT REQUESTED

     DETAILED OUTPUT OF DIAGNOSTICS TO DATABASE REQUESTED

     PRINT OF INCREMENT NUMBER, TIME, ETC., TO THE MESSAGE FILE EVERY     1  INCREMENTS

     ELEMENT OPERATIONS WILL BE CARRIED OUT IN PARALLEL USING   4 PROCESSORS

     PARALLEL CONTACT TRACKING ENABLED


     EQUATIONS ARE BEING REORDERED TO MINIMIZE WAVEFRONT

     COLLECTING MODEL CONSTRAINT INFORMATION FOR OVERCONSTRAINT CHECKS

     COLLECTING STEP CONSTRAINT INFORMATION FOR OVERCONSTRAINT CHECKS


  INCREMENT     1 STARTS. ATTEMPT NUMBER  1, TIME INCREMENT  1.000E-04
 
     INITIAL ELEMENT LOAD BALANCE
        COMPUTE NODE   1   PROCESS    NUMBER OF ELEMENTS
                              1            144
                              2            144
                              3            144
                              4            144

  NUMBER OF EQUATIONS =     2427     NUMBER OF FLOATING PT. OPERATIONS =  7.28E+07

  USING THE DIRECT SOLVER WITH   4 PROCESSORS

     CHECK POINT   START OF SOLVER    

     CHECK POINT  END OF SOLVER       

       ELAPSED USER TIME (SEC)      =   0.0000    
       ELAPSED SYSTEM TIME (SEC)    =   0.0000    
       ELAPSED TOTAL CPU TIME (SEC) =   0.0000    
       ELAPSED WALLCLOCK TIME (SEC) =          0

               CONVERGENCE CHECKS FOR EQUILIBRIUM ITERATION     1


 AVERAGE FORCE                      5.937E-06   TIME AVG. FORCE       5.937E-06
 LARGEST RESIDUAL FORCE            -9.678E-12   AT NODE        779   DOF  3
   INSTANCE: PART-1-1                                                                        
 LARGEST INCREMENT OF DISP.         1.667E-07   AT NODE          2   DOF  1
   INSTANCE: {assembly node}                                                                 
 LARGEST CORRECTION TO DISP.        1.667E-07   AT NODE          2   DOF  1
   INSTANCE: {assembly node}                                                                 
          DISP.    CORRECTION TOO LARGE COMPARED TO DISP.    INCREMENT

 AVERAGE MOMENT                      0.00       TIME AVG. MOMENT      1.000E-02
 LARGEST RESIDUAL MOMENT           -1.437E-12   AT NODE          2   DOF  5
   INSTANCE:                                                                                 
 LARGEST INCREMENT OF ROTATION     -5.796E-19   AT NODE          2   DOF  5
   INSTANCE: {assembly node}                                                                 
 LARGEST CORRECTION TO ROTATION    -5.796E-19   AT NODE          2   DOF  5
   INSTANCE: {assembly node}                                                                 
          THERE IS ZERO MOMENT    EVERYWHERE

  NUMBER OF EQUATIONS =     2427     NUMBER OF FLOATING PT. OPERATIONS =  7.28E+07

  USING THE DIRECT SOLVER WITH   4 PROCESSORS

     CHECK POINT   START OF SOLVER    

     CHECK POINT  END OF SOLVER       

       ELAPSED USER TIME (SEC)      =  0.10000    
       ELAPSED SYSTEM TIME (SEC)    =   0.0000    
       ELAPSED TOTAL CPU TIME (SEC) =  0.10000    
       ELAPSED WALLCLOCK TIME (SEC) =          0

               CONVERGENCE CHECKS FOR EQUILIBRIUM ITERATION     2


 AVERAGE FORCE                      5.937E-06   TIME AVG. FORCE       5.937E-06
 LARGEST RESIDUAL FORCE             8.560E-12   AT NODE        622   DOF  3
   INSTANCE: PART-1-1                                                                        
 LARGEST INCREMENT OF DISP.         1.667E-07   AT NODE        841   DOF  1
   INSTANCE: PART-1-1                                                                        
 LARGEST CORRECTION TO DISP.       -9.255E-15   AT NODE        847   DOF  3
   INSTANCE: PART-1-1                                                                        
          THE FORCE     EQUILIBRIUM EQUATIONS HAVE CONVERGED

 AVERAGE MOMENT                      0.00       TIME AVG. MOMENT      1.000E-02
 LARGEST RESIDUAL MOMENT           -6.764E-12   AT NODE          2   DOF  6
   INSTANCE:                                                                                 
 LARGEST INCREMENT OF ROTATION      1.285E-15   AT NODE          2   DOF  5
   INSTANCE: {assembly node}                                                                 
 LARGEST CORRECTION TO ROTATION     1.285E-15   AT NODE          2   DOF  5
   INSTANCE: {assembly node}                                                                 
          THERE IS ZERO MOMENT    EVERYWHERE

 MAXIMUM DIFFERENCE IN CREEP STRAIN INCREMENT IS   5.066E-14

 ITERATION SUMMARY FOR THE INCREMENT:   2 TOTAL ITERATIONS, OF WHICH
   0 ARE SEVERE DISCONTINUITY ITERATIONS AND  2 ARE EQUILIBRIUM ITERATIONS.

 TIME INCREMENT COMPLETED  1.000E-04,  FRACTION OF STEP COMPLETED  9.259E-07
 STEP TIME COMPLETED       1.000E-04,  TOTAL TIME COMPLETED        1.000E-04


  INCREMENT     2 STARTS. ATTEMPT NUMBER  1, TIME INCREMENT  1.000E-04

  NUMBER OF EQUATIONS =     2427     NUMBER OF FLOATING PT. OPERATIONS =  7.28E+07

  USING THE DIRECT SOLVER WITH   4 PROCESSORS

     CHECK POINT   START OF SOLVER    

     CHECK POINT  END OF SOLVER       

       ELAPSED USER TIME (SEC)      =   0.0000    
       ELAPSED SYSTEM TIME (SEC)    =   0.0000    
       ELAPSED TOTAL CPU TIME (SEC) =   0.0000    
       ELAPSED WALLCLOCK TIME (SEC) =          0

               CONVERGENCE CHECKS FOR EQUILIBRIUM ITERATION     1


 AVERAGE FORCE                      1.218E-05   TIME AVG. FORCE       9.060E-06
 LARGEST RESIDUAL FORCE             1.556E-11   AT NODE          2   DOF  3
   INSTANCE:                                                                                 
 LARGEST INCREMENT OF DISP.         1.667E-07   AT NODE        872   DOF  1
   INSTANCE: PART-1-1                                                                        
 LARGEST CORRECTION TO DISP.        1.769E-14   AT NODE        840   DOF  3
   INSTANCE: PART-1-1                                                                        
          THE FORCE     EQUILIBRIUM EQUATIONS HAVE CONVERGED

 AVERAGE MOMENT                      0.00       TIME AVG. MOMENT      1.000E-02
 LARGEST RESIDUAL MOMENT            2.676E-11   AT NODE          2   DOF  6
   INSTANCE:                                                                                 
 LARGEST INCREMENT OF ROTATION      5.031E-16   AT NODE          2   DOF  4
   INSTANCE: {assembly node}                                                                 
 LARGEST CORRECTION TO ROTATION    -1.336E-15   AT NODE          2   DOF  5
   INSTANCE: {assembly node}                                                                 
          THERE IS ZERO MOMENT    EVERYWHERE

 MAXIMUM DIFFERENCE IN CREEP STRAIN INCREMENT IS   5.066E-14

 ITERATION SUMMARY FOR THE INCREMENT:   1 TOTAL ITERATIONS, OF WHICH
   0 ARE SEVERE DISCONTINUITY ITERATIONS AND  1 ARE EQUILIBRIUM ITERATIONS.

 TIME INCREMENT COMPLETED  1.000E-04,  FRACTION OF STEP COMPLETED  1.852E-06
 STEP TIME COMPLETED       2.000E-04,  TOTAL TIME COMPLETED        2.000E-04


  INCREMENT     3 STARTS. ATTEMPT NUMBER  1, TIME INCREMENT  1.000E-04

  NUMBER OF EQUATIONS =     2427     NUMBER OF FLOATING PT. OPERATIONS =  7.28E+07

  USING THE DIRECT SOLVER WITH   4 PROCESSORS

     CHECK POINT   START OF SOLVER    

     CHECK POINT  END OF SOLVER       

       ELAPSED USER TIME (SEC)      =   0.0000    
       ELAPSED SYSTEM TIME (SEC)    =   0.0000    
       ELAPSED TOTAL CPU TIME (SEC) =   0.0000    
       ELAPSED WALLCLOCK TIME (SEC) =          0

               CONVERGENCE CHECKS FOR EQUILIBRIUM ITERATION     1


 AVERAGE FORCE                      1.828E-05   TIME AVG. FORCE       1.213E-05
 LARGEST RESIDUAL FORCE            -2.577E-11   AT NODE          2   DOF  3
   INSTANCE:                                                                                 
 LARGEST INCREMENT OF DISP.         1.667E-07   AT NODE        841   DOF  1
   INSTANCE: PART-1-1                                                                        
 LARGEST CORRECTION TO DISP.       -1.248E-14   AT NODE        700   DOF  2
   INSTANCE: PART-1-1                                                                        
          THE FORCE     EQUILIBRIUM EQUATIONS HAVE CONVERGED

 AVERAGE MOMENT                      0.00       TIME AVG. MOMENT      1.000E-02
 LARGEST RESIDUAL MOMENT           -3.777E-11   AT NODE          2   DOF  6
   INSTANCE:                                                                                 
 LARGEST INCREMENT OF ROTATION      1.277E-15   AT NODE          2   DOF  5
   INSTANCE: {assembly node}                                                                 
 LARGEST CORRECTION TO ROTATION     1.328E-15   AT NODE          2   DOF  5
   INSTANCE: {assembly node}                                                                 
          THERE IS ZERO MOMENT    EVERYWHERE

 MAXIMUM DIFFERENCE IN CREEP STRAIN INCREMENT IS   5.066E-14
          TIME INCREMENT MAY NOW INCREASE TO    2.000E-04

 ITERATION SUMMARY FOR THE INCREMENT:   1 TOTAL ITERATIONS, OF WHICH
   0 ARE SEVERE DISCONTINUITY ITERATIONS AND  1 ARE EQUILIBRIUM ITERATIONS.

 TIME INCREMENT COMPLETED  1.000E-04,  FRACTION OF STEP COMPLETED  2.778E-06
 STEP TIME COMPLETED       3.000E-04,  TOTAL TIME COMPLETED        3.000E-04


  INCREMENT     4 STARTS. ATTEMPT NUMBER  1, TIME INCREMENT  2.000E-04

  NUMBER OF EQUATIONS =     2427     NUMBER OF FLOATING PT. OPERATIONS =  7.28E+07

  USING THE DIRECT SOLVER WITH   4 PROCESSORS

     CHECK POINT   START OF SOLVER    

     CHECK POINT  END OF SOLVER       

       ELAPSED USER TIME (SEC)      =   0.0000    
       ELAPSED SYSTEM TIME (SEC)    =   0.0000    
       ELAPSED TOTAL CPU TIME (SEC) =   0.0000    
       ELAPSED WALLCLOCK TIME (SEC) =          0

               CONVERGENCE CHECKS FOR EQUILIBRIUM ITERATION     1


 AVERAGE FORCE                      3.035E-05   TIME AVG. FORCE       1.669E-05
 LARGEST RESIDUAL FORCE             2.152E-11   AT NODE          2   DOF  3
   INSTANCE:                                                                                 
 LARGEST INCREMENT OF DISP.         3.333E-07   AT NODE        874   DOF  1
   INSTANCE: PART-1-1                                                                        
 LARGEST CORRECTION TO DISP.        3.458E-14   AT NODE        757   DOF  2
   INSTANCE: PART-1-1                                                                        
          THE FORCE     EQUILIBRIUM EQUATIONS HAVE CONVERGED

 AVERAGE MOMENT                      0.00       TIME AVG. MOMENT      1.000E-02
 LARGEST RESIDUAL MOMENT            3.841E-11   AT NODE          2   DOF  6
   INSTANCE:                                                                                 
 LARGEST INCREMENT OF ROTATION     -3.448E-15   AT NODE          2   DOF  5
   INSTANCE: {assembly node}                                                                 
 LARGEST CORRECTION TO ROTATION    -6.001E-15   AT NODE          2   DOF  5
   INSTANCE: {assembly node}                                                                 
          THERE IS ZERO MOMENT    EVERYWHERE

 MAXIMUM DIFFERENCE IN CREEP STRAIN INCREMENT IS   2.026E-13
          TIME INCREMENT MAY NOW INCREASE TO    4.000E-04

 ITERATION SUMMARY FOR THE INCREMENT:   1 TOTAL ITERATIONS, OF WHICH
   0 ARE SEVERE DISCONTINUITY ITERATIONS AND  1 ARE EQUILIBRIUM ITERATIONS.

 TIME INCREMENT COMPLETED  2.000E-04,  FRACTION OF STEP COMPLETED  4.630E-06
 STEP TIME COMPLETED       5.000E-04,  TOTAL TIME COMPLETED        5.000E-04


  INCREMENT     5 STARTS. ATTEMPT NUMBER  1, TIME INCREMENT  4.000E-04

  NUMBER OF EQUATIONS =     2427     NUMBER OF FLOATING PT. OPERATIONS =  7.28E+07

  USING THE DIRECT SOLVER WITH   4 PROCESSORS

     CHECK POINT   START OF SOLVER    

     CHECK POINT  END OF SOLVER       

       ELAPSED USER TIME (SEC)      =   0.0000    
       ELAPSED SYSTEM TIME (SEC)    =   0.0000    
       ELAPSED TOTAL CPU TIME (SEC) =   0.0000    
       ELAPSED WALLCLOCK TIME (SEC) =          0

               CONVERGENCE CHECKS FOR EQUILIBRIUM ITERATION     1


 AVERAGE FORCE                      5.452E-05   TIME AVG. FORCE       2.425E-05
 LARGEST RESIDUAL FORCE            -1.977E-11   AT NODE        832   DOF  3
   INSTANCE: PART-1-1                                                                        
 LARGEST INCREMENT OF DISP.         6.667E-07   AT NODE        841   DOF  1
   INSTANCE: PART-1-1                                                                        
 LARGEST CORRECTION TO DISP.       -1.297E-13   AT NODE        770   DOF  2
   INSTANCE: PART-1-1                                                                        
          THE FORCE     EQUILIBRIUM EQUATIONS HAVE CONVERGED

 AVERAGE MOMENT                      0.00       TIME AVG. MOMENT      1.000E-02
 LARGEST RESIDUAL MOMENT           -3.566E-11   AT NODE          2   DOF  6
   INSTANCE:                                                                                 
 LARGEST INCREMENT OF ROTATION      8.810E-16   AT NODE          2   DOF  5
   INSTANCE: {assembly node}                                                                 
 LARGEST CORRECTION TO ROTATION     7.776E-15   AT NODE          2   DOF  5
   INSTANCE: {assembly node}                                                                 
          THERE IS ZERO MOMENT    EVERYWHERE

 MAXIMUM DIFFERENCE IN CREEP STRAIN INCREMENT IS   8.105E-13
          TIME INCREMENT MAY NOW INCREASE TO    8.000E-04

 ITERATION SUMMARY FOR THE INCREMENT:   1 TOTAL ITERATIONS, OF WHICH
   0 ARE SEVERE DISCONTINUITY ITERATIONS AND  1 ARE EQUILIBRIUM ITERATIONS.

 TIME INCREMENT COMPLETED  4.000E-04,  FRACTION OF STEP COMPLETED  8.333E-06
 STEP TIME COMPLETED       9.000E-04,  TOTAL TIME COMPLETED        9.000E-04


  INCREMENT     6 STARTS. ATTEMPT NUMBER  1, TIME INCREMENT  8.000E-04

  NUMBER OF EQUATIONS =     2427     NUMBER OF FLOATING PT. OPERATIONS =  7.28E+07

  USING THE DIRECT SOLVER WITH   4 PROCESSORS

     CHECK POINT   START OF SOLVER    

     CHECK POINT  END OF SOLVER       

       ELAPSED USER TIME (SEC)      =   0.0000    
       ELAPSED SYSTEM TIME (SEC)    =   0.0000    
       ELAPSED TOTAL CPU TIME (SEC) =   0.0000    
       ELAPSED WALLCLOCK TIME (SEC) =          0

               CONVERGENCE CHECKS FOR EQUILIBRIUM ITERATION     1


 AVERAGE FORCE                      1.028E-04   TIME AVG. FORCE       3.735E-05
 LARGEST RESIDUAL FORCE            -1.388E-11   AT NODE        839   DOF  3
   INSTANCE: PART-1-1                                                                        
 LARGEST INCREMENT OF DISP.         1.333E-06   AT NODE        845   DOF  1
   INSTANCE: PART-1-1                                                                        
 LARGEST CORRECTION TO DISP.        5.079E-13   AT NODE        743   DOF  2
   INSTANCE: PART-1-1                                                                        
          THE FORCE     EQUILIBRIUM EQUATIONS HAVE CONVERGED

 AVERAGE MOMENT                      0.00       TIME AVG. MOMENT      1.000E-02
 LARGEST RESIDUAL MOMENT           -8.252E-12   AT NODE          2   DOF  5
   INSTANCE:                                                                                 
 LARGEST INCREMENT OF ROTATION      1.226E-15   AT NODE          2   DOF  5
   INSTANCE: {assembly node}                                                                 
 LARGEST CORRECTION TO ROTATION     1.712E-15   AT NODE          2   DOF  4
   INSTANCE: {assembly node}                                                                 
          THERE IS ZERO MOMENT    EVERYWHERE

 MAXIMUM DIFFERENCE IN CREEP STRAIN INCREMENT IS   3.242E-12
          TIME INCREMENT MAY NOW INCREASE TO    1.600E-03

 ITERATION SUMMARY FOR THE INCREMENT:   1 TOTAL ITERATIONS, OF WHICH
   0 ARE SEVERE DISCONTINUITY ITERATIONS AND  1 ARE EQUILIBRIUM ITERATIONS.

 TIME INCREMENT COMPLETED  8.000E-04,  FRACTION OF STEP COMPLETED  1.574E-05
 STEP TIME COMPLETED       1.700E-03,  TOTAL TIME COMPLETED        1.700E-03


  INCREMENT     7 STARTS. ATTEMPT NUMBER  1, TIME INCREMENT  1.600E-03

  NUMBER OF EQUATIONS =     2427     NUMBER OF FLOATING PT. OPERATIONS =  7.28E+07

  USING THE DIRECT SOLVER WITH   4 PROCESSORS

     CHECK POINT   START OF SOLVER    

     CHECK POINT  END OF SOLVER       

       ELAPSED USER TIME (SEC)      =  0.10000    
       ELAPSED SYSTEM TIME (SEC)    =   0.0000    
       ELAPSED TOTAL CPU TIME (SEC) =  0.10000    
       ELAPSED WALLCLOCK TIME (SEC) =          0

               CONVERGENCE CHECKS FOR EQUILIBRIUM ITERATION     1


 AVERAGE FORCE                      1.990E-04   TIME AVG. FORCE       6.045E-05
 LARGEST RESIDUAL FORCE            -1.487E-11   AT NODE        828   DOF  3
   INSTANCE: PART-1-1                                                                        
 LARGEST INCREMENT OF DISP.         2.667E-06   AT NODE        841   DOF  1
   INSTANCE: PART-1-1                                                                        
 LARGEST CORRECTION TO DISP.        2.021E-12   AT NODE        757   DOF  2
   INSTANCE: PART-1-1                                                                        
          THE FORCE     EQUILIBRIUM EQUATIONS HAVE CONVERGED

 AVERAGE MOMENT                      0.00       TIME AVG. MOMENT      1.000E-02
 LARGEST RESIDUAL MOMENT           -2.012E-11   AT NODE          2   DOF  6
   INSTANCE:                                                                                 
 LARGEST INCREMENT OF ROTATION     -2.852E-16   AT NODE          2   DOF  4
   INSTANCE: {assembly node}                                                                 
 LARGEST CORRECTION TO ROTATION    -2.423E-15   AT NODE          2   DOF  5
   INSTANCE: {assembly node}                                                                 
          THERE IS ZERO MOMENT    EVERYWHERE

 MAXIMUM DIFFERENCE IN CREEP STRAIN INCREMENT IS   1.297E-11
          TIME INCREMENT MAY NOW INCREASE TO    3.200E-03

 ITERATION SUMMARY FOR THE INCREMENT:   1 TOTAL ITERATIONS, OF WHICH
   0 ARE SEVERE DISCONTINUITY ITERATIONS AND  1 ARE EQUILIBRIUM ITERATIONS.

 TIME INCREMENT COMPLETED  1.600E-03,  FRACTION OF STEP COMPLETED  3.056E-05
 STEP TIME COMPLETED       3.300E-03,  TOTAL TIME COMPLETED        3.300E-03


  INCREMENT     8 STARTS. ATTEMPT NUMBER  1, TIME INCREMENT  3.200E-03

  NUMBER OF EQUATIONS =     2427     NUMBER OF FLOATING PT. OPERATIONS =  7.28E+07

  USING THE DIRECT SOLVER WITH   4 PROCESSORS

     CHECK POINT   START OF SOLVER    

     CHECK POINT  END OF SOLVER       

       ELAPSED USER TIME (SEC)      =  0.10000    
       ELAPSED SYSTEM TIME (SEC)    =  0.10000    
       ELAPSED TOTAL CPU TIME (SEC) =  0.20000    
       ELAPSED WALLCLOCK TIME (SEC) =          0

               CONVERGENCE CHECKS FOR EQUILIBRIUM ITERATION     1


 AVERAGE FORCE                      3.911E-04   TIME AVG. FORCE       1.018E-04
 LARGEST RESIDUAL FORCE            -1.531E-11   AT NODE        814   DOF  3
   INSTANCE: PART-1-1                                                                        
 LARGEST INCREMENT OF DISP.         5.333E-06   AT NODE        844   DOF  1
   INSTANCE: PART-1-1                                                                        
 LARGEST CORRECTION TO DISP.       -8.082E-12   AT NODE        749   DOF  2
   INSTANCE: PART-1-1                                                                        
          THE FORCE     EQUILIBRIUM EQUATIONS HAVE CONVERGED

 AVERAGE MOMENT                      0.00       TIME AVG. MOMENT      1.000E-02
 LARGEST RESIDUAL MOMENT           -3.174E-11   AT NODE          2   DOF  6
   INSTANCE:                                                                                 
 LARGEST INCREMENT OF ROTATION      1.933E-16   AT NODE          2   DOF  4
   INSTANCE: {assembly node}                                                                 
 LARGEST CORRECTION TO ROTATION     7.637E-16   AT NODE          2   DOF  4
   INSTANCE: {assembly node}                                                                 
          THERE IS ZERO MOMENT    EVERYWHERE

 MAXIMUM DIFFERENCE IN CREEP STRAIN INCREMENT IS   5.186E-11
          TIME INCREMENT MAY NOW INCREASE TO    6.400E-03

 ITERATION SUMMARY FOR THE INCREMENT:   1 TOTAL ITERATIONS, OF WHICH
   0 ARE SEVERE DISCONTINUITY ITERATIONS AND  1 ARE EQUILIBRIUM ITERATIONS.

 TIME INCREMENT COMPLETED  3.200E-03,  FRACTION OF STEP COMPLETED  6.019E-05
 STEP TIME COMPLETED       6.500E-03,  TOTAL TIME COMPLETED        6.500E-03


  INCREMENT     9 STARTS. ATTEMPT NUMBER  1, TIME INCREMENT  6.400E-03

  NUMBER OF EQUATIONS =     2427     NUMBER OF FLOATING PT. OPERATIONS =  7.28E+07

  USING THE DIRECT SOLVER WITH   4 PROCESSORS

     CHECK POINT   START OF SOLVER    

     CHECK POINT  END OF SOLVER       

       ELAPSED USER TIME (SEC)      =   0.0000    
       ELAPSED SYSTEM TIME (SEC)    =   0.0000    
       ELAPSED TOTAL CPU TIME (SEC) =   0.0000    
       ELAPSED WALLCLOCK TIME (SEC) =          0

               CONVERGENCE CHECKS FOR EQUILIBRIUM ITERATION     1


 AVERAGE FORCE                      7.748E-04   TIME AVG. FORCE       1.766E-04
 LARGEST RESIDUAL FORCE             1.757E-11   AT NODE         61   DOF  3
   INSTANCE: PART-1-1                                                                        
 LARGEST INCREMENT OF DISP.         1.067E-05   AT NODE        868   DOF  1
   INSTANCE: PART-1-1                                                                        
 LARGEST CORRECTION TO DISP.       -3.232E-11   AT NODE        763   DOF  2
   INSTANCE: PART-1-1                                                                        
          THE FORCE     EQUILIBRIUM EQUATIONS HAVE CONVERGED

 AVERAGE MOMENT                      0.00       TIME AVG. MOMENT      1.000E-02
 LARGEST RESIDUAL MOMENT            1.415E-11   AT NODE          2   DOF  6
   INSTANCE:                                                                                 
 LARGEST INCREMENT OF ROTATION     -1.497E-15   AT NODE          2   DOF  5
   INSTANCE: {assembly node}                                                                 
 LARGEST CORRECTION TO ROTATION    -1.847E-15   AT NODE          2   DOF  5
   INSTANCE: {assembly node}                                                                 
          THERE IS ZERO MOMENT    EVERYWHERE

 MAXIMUM DIFFERENCE IN CREEP STRAIN INCREMENT IS   2.074E-10
          TIME INCREMENT MAY NOW INCREASE TO    1.280E-02

 ITERATION SUMMARY FOR THE INCREMENT:   1 TOTAL ITERATIONS, OF WHICH
   0 ARE SEVERE DISCONTINUITY ITERATIONS AND  1 ARE EQUILIBRIUM ITERATIONS.

 TIME INCREMENT COMPLETED  6.400E-03,  FRACTION OF STEP COMPLETED  1.194E-04
 STEP TIME COMPLETED       1.290E-02,  TOTAL TIME COMPLETED        1.290E-02


  INCREMENT    10 STARTS. ATTEMPT NUMBER  1, TIME INCREMENT  1.280E-02

  NUMBER OF EQUATIONS =     2427     NUMBER OF FLOATING PT. OPERATIONS =  7.28E+07

  USING THE DIRECT SOLVER WITH   4 PROCESSORS

     CHECK POINT   START OF SOLVER    

     CHECK POINT  END OF SOLVER       

       ELAPSED USER TIME (SEC)      =   0.0000    
       ELAPSED SYSTEM TIME (SEC)    =   0.0000    
       ELAPSED TOTAL CPU TIME (SEC) =   0.0000    
       ELAPSED WALLCLOCK TIME (SEC) =          0

               CONVERGENCE CHECKS FOR EQUILIBRIUM ITERATION     1


 AVERAGE FORCE                      1.542E-03   TIME AVG. FORCE       3.131E-04
 LARGEST RESIDUAL FORCE             2.399E-11   AT NODE        815   DOF  3
   INSTANCE: PART-1-1                                                                        
 LARGEST INCREMENT OF DISP.         2.133E-05   AT NODE        869   DOF  1
   INSTANCE: PART-1-1                                                                        
 LARGEST CORRECTION TO DISP.        1.292E-10   AT NODE        743   DOF  2
   INSTANCE: PART-1-1                                                                        
          THE FORCE     EQUILIBRIUM EQUATIONS HAVE CONVERGED

 AVERAGE MOMENT                      0.00       TIME AVG. MOMENT      1.000E-02
 LARGEST RESIDUAL MOMENT           -8.526E-12   AT NODE          2   DOF  6
   INSTANCE:                                                                                 
 LARGEST INCREMENT OF ROTATION     -7.579E-16   AT NODE          2   DOF  5
   INSTANCE: {assembly node}                                                                 
 LARGEST CORRECTION TO ROTATION     2.237E-15   AT NODE          2   DOF  5
   INSTANCE: {assembly node}                                                                 
          THERE IS ZERO MOMENT    EVERYWHERE

 MAXIMUM DIFFERENCE IN CREEP STRAIN INCREMENT IS   8.294E-10
          TIME INCREMENT MAY NOW INCREASE TO    2.560E-02

 ITERATION SUMMARY FOR THE INCREMENT:   1 TOTAL ITERATIONS, OF WHICH
   0 ARE SEVERE DISCONTINUITY ITERATIONS AND  1 ARE EQUILIBRIUM ITERATIONS.

 TIME INCREMENT COMPLETED  1.280E-02,  FRACTION OF STEP COMPLETED  2.380E-04
 STEP TIME COMPLETED       2.570E-02,  TOTAL TIME COMPLETED        2.570E-02


  INCREMENT    11 STARTS. ATTEMPT NUMBER  1, TIME INCREMENT  2.560E-02

  NUMBER OF EQUATIONS =     2427     NUMBER OF FLOATING PT. OPERATIONS =  7.28E+07

  USING THE DIRECT SOLVER WITH   4 PROCESSORS

     CHECK POINT   START OF SOLVER    

     CHECK POINT  END OF SOLVER       

       ELAPSED USER TIME (SEC)      =   0.0000    
       ELAPSED SYSTEM TIME (SEC)    =   0.0000    
       ELAPSED TOTAL CPU TIME (SEC) =   0.0000    
       ELAPSED WALLCLOCK TIME (SEC) =          0

               CONVERGENCE CHECKS FOR EQUILIBRIUM ITERATION     1


 AVERAGE FORCE                      3.075E-03   TIME AVG. FORCE       5.641E-04
 LARGEST RESIDUAL FORCE             2.034E-11   AT NODE          2   DOF  3
   INSTANCE:                                                                                 
 LARGEST INCREMENT OF DISP.         4.267E-05   AT NODE        862   DOF  1
   INSTANCE: PART-1-1                                                                        
 LARGEST CORRECTION TO DISP.        5.165E-10   AT NODE        757   DOF  2
   INSTANCE: PART-1-1                                                                        
          THE FORCE     EQUILIBRIUM EQUATIONS HAVE CONVERGED

 AVERAGE MOMENT                      0.00       TIME AVG. MOMENT      1.000E-02
 LARGEST RESIDUAL MOMENT           -4.090E-11   AT NODE          2   DOF  6
   INSTANCE:                                                                                 
 LARGEST INCREMENT OF ROTATION     -6.610E-16   AT NODE          2   DOF  5
   INSTANCE: {assembly node}                                                                 
 LARGEST CORRECTION TO ROTATION     1.308E-15   AT NODE          2   DOF  4
   INSTANCE: {assembly node}                                                                 
          THERE IS ZERO MOMENT    EVERYWHERE

 MAXIMUM DIFFERENCE IN CREEP STRAIN INCREMENT IS   3.315E-09
          TIME INCREMENT MAY NOW INCREASE TO    5.120E-02

 ITERATION SUMMARY FOR THE INCREMENT:   1 TOTAL ITERATIONS, OF WHICH
   0 ARE SEVERE DISCONTINUITY ITERATIONS AND  1 ARE EQUILIBRIUM ITERATIONS.

 TIME INCREMENT COMPLETED  2.560E-02,  FRACTION OF STEP COMPLETED  4.750E-04
 STEP TIME COMPLETED       5.130E-02,  TOTAL TIME COMPLETED        5.130E-02


  INCREMENT    12 STARTS. ATTEMPT NUMBER  1, TIME INCREMENT  5.120E-02

  NUMBER OF EQUATIONS =     2427     NUMBER OF FLOATING PT. OPERATIONS =  7.28E+07

  USING THE DIRECT SOLVER WITH   4 PROCESSORS

     CHECK POINT   START OF SOLVER    

     CHECK POINT  END OF SOLVER       

       ELAPSED USER TIME (SEC)      =  0.10000    
       ELAPSED SYSTEM TIME (SEC)    =   0.0000    
       ELAPSED TOTAL CPU TIME (SEC) =  0.10000    
       ELAPSED WALLCLOCK TIME (SEC) =          0

               CONVERGENCE CHECKS FOR EQUILIBRIUM ITERATION     1


 AVERAGE FORCE                      6.131E-03   TIME AVG. FORCE       1.028E-03
 LARGEST RESIDUAL FORCE            -2.261E-11   AT NODE          2   DOF  3
   INSTANCE:                                                                                 
 LARGEST INCREMENT OF DISP.         8.533E-05   AT NODE        843   DOF  1
   INSTANCE: PART-1-1                                                                        
 LARGEST CORRECTION TO DISP.        2.063E-09   AT NODE        113   DOF  2
   INSTANCE: PART-1-1                                                                        
          THE FORCE     EQUILIBRIUM EQUATIONS HAVE CONVERGED

 AVERAGE MOMENT                      0.00       TIME AVG. MOMENT      1.000E-02
 LARGEST RESIDUAL MOMENT            6.951E-11   AT NODE          2   DOF  6
   INSTANCE:                                                                                 
 LARGEST INCREMENT OF ROTATION      3.506E-15   AT NODE          2   DOF  5
   INSTANCE: {assembly node}                                                                 
 LARGEST CORRECTION TO ROTATION     4.828E-15   AT NODE          2   DOF  5
   INSTANCE: {assembly node}                                                                 
          THERE IS ZERO MOMENT    EVERYWHERE

 MAXIMUM DIFFERENCE IN CREEP STRAIN INCREMENT IS   1.324E-08
          TIME INCREMENT MAY NOW INCREASE TO    0.102    

 ITERATION SUMMARY FOR THE INCREMENT:   1 TOTAL ITERATIONS, OF WHICH
   0 ARE SEVERE DISCONTINUITY ITERATIONS AND  1 ARE EQUILIBRIUM ITERATIONS.

 TIME INCREMENT COMPLETED  5.120E-02,  FRACTION OF STEP COMPLETED  9.491E-04
 STEP TIME COMPLETED       0.103    ,  TOTAL TIME COMPLETED        0.103    


  INCREMENT    13 STARTS. ATTEMPT NUMBER  1, TIME INCREMENT  0.102    

  NUMBER OF EQUATIONS =     2427     NUMBER OF FLOATING PT. OPERATIONS =  7.28E+07

  USING THE DIRECT SOLVER WITH   4 PROCESSORS

     CHECK POINT   START OF SOLVER    

     CHECK POINT  END OF SOLVER       

       ELAPSED USER TIME (SEC)      =  0.10000    
       ELAPSED SYSTEM TIME (SEC)    =  0.10000    
       ELAPSED TOTAL CPU TIME (SEC) =  0.20000    
       ELAPSED WALLCLOCK TIME (SEC) =          0

               CONVERGENCE CHECKS FOR EQUILIBRIUM ITERATION     1


 AVERAGE FORCE                      1.225E-02   TIME AVG. FORCE       1.891E-03
 LARGEST RESIDUAL FORCE             1.129E-10   AT NODE         37   DOF  3
   INSTANCE: PART-1-1                                                                        
 LARGEST INCREMENT OF DISP.         1.707E-04   AT NODE        862   DOF  1
   INSTANCE: PART-1-1                                                                        
 LARGEST CORRECTION TO DISP.       -8.226E-09   AT NODE        763   DOF  2
   INSTANCE: PART-1-1                                                                        
          THE FORCE     EQUILIBRIUM EQUATIONS HAVE CONVERGED

 AVERAGE MOMENT                      0.00       TIME AVG. MOMENT      1.000E-02
 LARGEST RESIDUAL MOMENT           -3.581E-11   AT NODE          2   DOF  6
   INSTANCE:                                                                                 
 LARGEST INCREMENT OF ROTATION     -3.754E-15   AT NODE          2   DOF  5
   INSTANCE: {assembly node}                                                                 
 LARGEST CORRECTION TO ROTATION    -1.077E-14   AT NODE          2   DOF  5
   INSTANCE: {assembly node}                                                                 
          THERE IS ZERO MOMENT    EVERYWHERE

 MAXIMUM DIFFERENCE IN CREEP STRAIN INCREMENT IS   5.284E-08
          TIME INCREMENT MAY NOW INCREASE TO    0.205    

 ITERATION SUMMARY FOR THE INCREMENT:   1 TOTAL ITERATIONS, OF WHICH
   0 ARE SEVERE DISCONTINUITY ITERATIONS AND  1 ARE EQUILIBRIUM ITERATIONS.

 TIME INCREMENT COMPLETED  0.102    ,  FRACTION OF STEP COMPLETED  1.897E-03
 STEP TIME COMPLETED       0.205    ,  TOTAL TIME COMPLETED        0.205    


  INCREMENT    14 STARTS. ATTEMPT NUMBER  1, TIME INCREMENT  0.205    

  NUMBER OF EQUATIONS =     2427     NUMBER OF FLOATING PT. OPERATIONS =  7.28E+07

  USING THE DIRECT SOLVER WITH   4 PROCESSORS

     CHECK POINT   START OF SOLVER    

     CHECK POINT  END OF SOLVER       

       ELAPSED USER TIME (SEC)      =  0.10000    
       ELAPSED SYSTEM TIME (SEC)    =   0.0000    
       ELAPSED TOTAL CPU TIME (SEC) =  0.10000    
       ELAPSED WALLCLOCK TIME (SEC) =          0

               CONVERGENCE CHECKS FOR EQUILIBRIUM ITERATION     1


 AVERAGE FORCE                      2.444E-02   TIME AVG. FORCE       3.502E-03
 LARGEST RESIDUAL FORCE            -8.458E-10   AT NODE        835   DOF  3
   INSTANCE: PART-1-1                                                                        
 LARGEST INCREMENT OF DISP.         3.413E-04   AT NODE        843   DOF  1
   INSTANCE: PART-1-1                                                                        
 LARGEST CORRECTION TO DISP.        3.270E-08   AT NODE        743   DOF  2
   INSTANCE: PART-1-1                                                                        
          THE FORCE     EQUILIBRIUM EQUATIONS HAVE CONVERGED

 AVERAGE MOMENT                      0.00       TIME AVG. MOMENT      1.000E-02
 LARGEST RESIDUAL MOMENT           -1.977E-11   AT NODE          2   DOF  5
   INSTANCE:                                                                                 
 LARGEST INCREMENT OF ROTATION      7.170E-16   AT NODE          2   DOF  5
   INSTANCE: {assembly node}                                                                 
 LARGEST CORRECTION TO ROTATION     8.226E-15   AT NODE          2   DOF  5
   INSTANCE: {assembly node}                                                                 
          THERE IS ZERO MOMENT    EVERYWHERE

 MAXIMUM DIFFERENCE IN CREEP STRAIN INCREMENT IS   2.102E-07
          TIME INCREMENT MAY NOW INCREASE TO    0.410    

 ITERATION SUMMARY FOR THE INCREMENT:   1 TOTAL ITERATIONS, OF WHICH
   0 ARE SEVERE DISCONTINUITY ITERATIONS AND  1 ARE EQUILIBRIUM ITERATIONS.

 TIME INCREMENT COMPLETED  0.205    ,  FRACTION OF STEP COMPLETED  3.794E-03
 STEP TIME COMPLETED       0.410    ,  TOTAL TIME COMPLETED        0.410    


  INCREMENT    15 STARTS. ATTEMPT NUMBER  1, TIME INCREMENT  0.410    

  NUMBER OF EQUATIONS =     2427     NUMBER OF FLOATING PT. OPERATIONS =  7.28E+07

  USING THE DIRECT SOLVER WITH   4 PROCESSORS

     CHECK POINT   START OF SOLVER    

     CHECK POINT  END OF SOLVER       

       ELAPSED USER TIME (SEC)      =  0.10000    
       ELAPSED SYSTEM TIME (SEC)    =   0.0000    
       ELAPSED TOTAL CPU TIME (SEC) =  0.10000    
       ELAPSED WALLCLOCK TIME (SEC) =          0

               CONVERGENCE CHECKS FOR EQUILIBRIUM ITERATION     1


 AVERAGE FORCE                      4.863E-02   TIME AVG. FORCE       6.510E-03
 LARGEST RESIDUAL FORCE            -6.927E-09   AT NODE         69   DOF  3
   INSTANCE: PART-1-1                                                                        
 LARGEST INCREMENT OF DISP.         6.827E-04   AT NODE        869   DOF  1
   INSTANCE: PART-1-1                                                                        
 LARGEST CORRECTION TO DISP.       -1.292E-07   AT NODE        749   DOF  2
   INSTANCE: PART-1-1                                                                        
          THE FORCE     EQUILIBRIUM EQUATIONS HAVE CONVERGED

 AVERAGE MOMENT                      0.00       TIME AVG. MOMENT      1.000E-02
 LARGEST RESIDUAL MOMENT            4.207E-11   AT NODE          2   DOF  5
   INSTANCE:                                                                                 
 LARGEST INCREMENT OF ROTATION     -6.115E-15   AT NODE          2   DOF  5
   INSTANCE: {assembly node}                                                                 
 LARGEST CORRECTION TO ROTATION    -7.549E-15   AT NODE          2   DOF  5
   INSTANCE: {assembly node}                                                                 
          THERE IS ZERO MOMENT    EVERYWHERE

 MAXIMUM DIFFERENCE IN CREEP STRAIN INCREMENT IS   8.322E-07
          TIME INCREMENT MAY NOW INCREASE TO    0.819    

 ITERATION SUMMARY FOR THE INCREMENT:   1 TOTAL ITERATIONS, OF WHICH
   0 ARE SEVERE DISCONTINUITY ITERATIONS AND  1 ARE EQUILIBRIUM ITERATIONS.

 TIME INCREMENT COMPLETED  0.410    ,  FRACTION OF STEP COMPLETED  7.586E-03
 STEP TIME COMPLETED       0.819    ,  TOTAL TIME COMPLETED        0.819    


  INCREMENT    16 STARTS. ATTEMPT NUMBER  1, TIME INCREMENT  0.819    

  NUMBER OF EQUATIONS =     2427     NUMBER OF FLOATING PT. OPERATIONS =  7.28E+07

  USING THE DIRECT SOLVER WITH   4 PROCESSORS

     CHECK POINT   START OF SOLVER    

     CHECK POINT  END OF SOLVER       

       ELAPSED USER TIME (SEC)      =  0.10000    
       ELAPSED SYSTEM TIME (SEC)    =   0.0000    
       ELAPSED TOTAL CPU TIME (SEC) =  0.10000    
       ELAPSED WALLCLOCK TIME (SEC) =          0

               CONVERGENCE CHECKS FOR EQUILIBRIUM ITERATION     1


 AVERAGE FORCE                      9.663E-02   TIME AVG. FORCE       1.214E-02
 LARGEST RESIDUAL FORCE             5.935E-08   AT NODE        807   DOF  3
   INSTANCE: PART-1-1                                                                        
 LARGEST INCREMENT OF DISP.         1.365E-03   AT NODE        848   DOF  1
   INSTANCE: PART-1-1                                                                        
 LARGEST CORRECTION TO DISP.        5.039E-07   AT NODE        743   DOF  2
   INSTANCE: PART-1-1                                                                        
          THE FORCE     EQUILIBRIUM EQUATIONS HAVE CONVERGED

 AVERAGE MOMENT                      0.00       TIME AVG. MOMENT      1.000E-02
 LARGEST RESIDUAL MOMENT            2.916E-11   AT NODE          2   DOF  6
   INSTANCE:                                                                                 
 LARGEST INCREMENT OF ROTATION      1.712E-16   AT NODE          2   DOF  4
   INSTANCE: {assembly node}                                                                 
 LARGEST CORRECTION TO ROTATION     1.228E-14   AT NODE          2   DOF  5
   INSTANCE: {assembly node}                                                                 
          THERE IS ZERO MOMENT    EVERYWHERE

 MAXIMUM DIFFERENCE IN CREEP STRAIN INCREMENT IS   3.260E-06
          TIME INCREMENT MAY NOW INCREASE TO     1.64    

 ITERATION SUMMARY FOR THE INCREMENT:   1 TOTAL ITERATIONS, OF WHICH
   0 ARE SEVERE DISCONTINUITY ITERATIONS AND  1 ARE EQUILIBRIUM ITERATIONS.

 TIME INCREMENT COMPLETED  0.819    ,  FRACTION OF STEP COMPLETED  1.517E-02
 STEP TIME COMPLETED        1.64    ,  TOTAL TIME COMPLETED         1.64    


  INCREMENT    17 STARTS. ATTEMPT NUMBER  1, TIME INCREMENT   1.64    

  NUMBER OF EQUATIONS =     2427     NUMBER OF FLOATING PT. OPERATIONS =  7.28E+07

  USING THE DIRECT SOLVER WITH   4 PROCESSORS

     CHECK POINT   START OF SOLVER    

     CHECK POINT  END OF SOLVER       

       ELAPSED USER TIME (SEC)      =  0.10000    
       ELAPSED SYSTEM TIME (SEC)    =   0.0000    
       ELAPSED TOTAL CPU TIME (SEC) =  0.10000    
       ELAPSED WALLCLOCK TIME (SEC) =          0

               CONVERGENCE CHECKS FOR EQUILIBRIUM ITERATION     1


 AVERAGE FORCE                      0.192       TIME AVG. FORCE       2.271E-02
 LARGEST RESIDUAL FORCE             5.540E-07   AT NODE        807   DOF  3
   INSTANCE: PART-1-1                                                                        
 LARGEST INCREMENT OF DISP.         2.731E-03   AT NODE        869   DOF  1
   INSTANCE: PART-1-1                                                                        
 LARGEST CORRECTION TO DISP.       -1.913E-06   AT NODE        749   DOF  2
   INSTANCE: PART-1-1                                                                        
          THE FORCE     EQUILIBRIUM EQUATIONS HAVE CONVERGED

 AVERAGE MOMENT                      0.00       TIME AVG. MOMENT      1.000E-02
 LARGEST RESIDUAL MOMENT           -3.369E-11   AT NODE          2   DOF  6
   INSTANCE:                                                                                 
 LARGEST INCREMENT OF ROTATION     -1.071E-14   AT NODE          2   DOF  5
   INSTANCE: {assembly node}                                                                 
 LARGEST CORRECTION TO ROTATION    -1.081E-14   AT NODE          2   DOF  5
   INSTANCE: {assembly node}                                                                 
          THERE IS ZERO MOMENT    EVERYWHERE

 MAXIMUM DIFFERENCE IN CREEP STRAIN INCREMENT IS   1.251E-05
 

 ***NOTE: THE TIME INTEGRATION ACCURACY TOLERANCE HAS BEEN EXCEEDED.


  INCREMENT    17 STARTS. ATTEMPT NUMBER  2, TIME INCREMENT   1.11    

  NUMBER OF EQUATIONS =     2427     NUMBER OF FLOATING PT. OPERATIONS =  7.28E+07

  USING THE DIRECT SOLVER WITH   4 PROCESSORS

     CHECK POINT   START OF SOLVER    

     CHECK POINT  END OF SOLVER       

       ELAPSED USER TIME (SEC)      =  0.10000    
       ELAPSED SYSTEM TIME (SEC)    =   0.0000    
       ELAPSED TOTAL CPU TIME (SEC) =  0.10000    
       ELAPSED WALLCLOCK TIME (SEC) =          0

               CONVERGENCE CHECKS FOR EQUILIBRIUM ITERATION     1


 AVERAGE FORCE                      0.161       TIME AVG. FORCE       2.092E-02
 LARGEST RESIDUAL FORCE            -2.298E-07   AT NODE        835   DOF  3
   INSTANCE: PART-1-1                                                                        
 LARGEST INCREMENT OF DISP.         1.855E-03   AT NODE        869   DOF  1
   INSTANCE: PART-1-1                                                                        
 LARGEST CORRECTION TO DISP.       -1.031E-06   AT NODE        749   DOF  2
   INSTANCE: PART-1-1                                                                        
          THE FORCE     EQUILIBRIUM EQUATIONS HAVE CONVERGED

 AVERAGE MOMENT                      0.00       TIME AVG. MOMENT      1.000E-02
 LARGEST RESIDUAL MOMENT           -3.018E-11   AT NODE          2   DOF  6
   INSTANCE:                                                                                 
 LARGEST INCREMENT OF ROTATION     -8.103E-15   AT NODE          2   DOF  5
   INSTANCE: {assembly node}                                                                 
 LARGEST CORRECTION TO ROTATION    -8.168E-15   AT NODE          2   DOF  5
   INSTANCE: {assembly node}                                                                 
          THERE IS ZERO MOMENT    EVERYWHERE

 MAXIMUM DIFFERENCE IN CREEP STRAIN INCREMENT IS   5.823E-06

 ITERATION SUMMARY FOR THE INCREMENT:   1 TOTAL ITERATIONS, OF WHICH
   0 ARE SEVERE DISCONTINUITY ITERATIONS AND  1 ARE EQUILIBRIUM ITERATIONS.

 TIME INCREMENT COMPLETED   1.11    ,  FRACTION OF STEP COMPLETED  2.547E-02
 STEP TIME COMPLETED        2.75    ,  TOTAL TIME COMPLETED         2.75    


  INCREMENT    18 STARTS. ATTEMPT NUMBER  1, TIME INCREMENT   1.11    

  NUMBER OF EQUATIONS =     2427     NUMBER OF FLOATING PT. OPERATIONS =  7.28E+07

  USING THE DIRECT SOLVER WITH   4 PROCESSORS

     CHECK POINT   START OF SOLVER    

     CHECK POINT  END OF SOLVER       

       ELAPSED USER TIME (SEC)      =  0.10000    
       ELAPSED SYSTEM TIME (SEC)    =   0.0000    
       ELAPSED TOTAL CPU TIME (SEC) =  0.10000    
       ELAPSED WALLCLOCK TIME (SEC) =          0

               CONVERGENCE CHECKS FOR EQUILIBRIUM ITERATION     1


 AVERAGE FORCE                      0.226       TIME AVG. FORCE       3.231E-02
 LARGEST RESIDUAL FORCE            -3.798E-07   AT NODE         65   DOF  3
   INSTANCE: PART-1-1                                                                        
 LARGEST INCREMENT OF DISP.         1.855E-03   AT NODE        869   DOF  1
   INSTANCE: PART-1-1                                                                        
 LARGEST CORRECTION TO DISP.        1.121E-06   AT NODE        757   DOF  2
   INSTANCE: PART-1-1                                                                        
          THE FORCE     EQUILIBRIUM EQUATIONS HAVE CONVERGED

 AVERAGE MOMENT                      0.00       TIME AVG. MOMENT      1.000E-02
 LARGEST RESIDUAL MOMENT           -1.174E-11   AT NODE          2   DOF  5
   INSTANCE:                                                                                 
 LARGEST INCREMENT OF ROTATION     -5.942E-15   AT NODE          2   DOF  5
   INSTANCE: {assembly node}                                                                 
 LARGEST CORRECTION TO ROTATION     2.161E-15   AT NODE          2   DOF  5
   INSTANCE: {assembly node}                                                                 
          THERE IS ZERO MOMENT    EVERYWHERE

 MAXIMUM DIFFERENCE IN CREEP STRAIN INCREMENT IS   5.612E-06

 ITERATION SUMMARY FOR THE INCREMENT:   1 TOTAL ITERATIONS, OF WHICH
   0 ARE SEVERE DISCONTINUITY ITERATIONS AND  1 ARE EQUILIBRIUM ITERATIONS.

 TIME INCREMENT COMPLETED   1.11    ,  FRACTION OF STEP COMPLETED  3.578E-02
 STEP TIME COMPLETED        3.86    ,  TOTAL TIME COMPLETED         3.86    


  INCREMENT    19 STARTS. ATTEMPT NUMBER  1, TIME INCREMENT   1.11    

  NUMBER OF EQUATIONS =     2427     NUMBER OF FLOATING PT. OPERATIONS =  7.28E+07

  USING THE DIRECT SOLVER WITH   4 PROCESSORS

     CHECK POINT   START OF SOLVER    

     CHECK POINT  END OF SOLVER       

       ELAPSED USER TIME (SEC)      =   0.0000    
       ELAPSED SYSTEM TIME (SEC)    =   0.0000    
       ELAPSED TOTAL CPU TIME (SEC) =   0.0000    
       ELAPSED WALLCLOCK TIME (SEC) =          0

               CONVERGENCE CHECKS FOR EQUILIBRIUM ITERATION     1


 AVERAGE FORCE                      0.290       TIME AVG. FORCE       4.586E-02
 LARGEST RESIDUAL FORCE             4.877E-07   AT NODE         37   DOF  3
   INSTANCE: PART-1-1                                                                        
 LARGEST INCREMENT OF DISP.         1.855E-03   AT NODE        869   DOF  1
   INSTANCE: PART-1-1                                                                        
 LARGEST CORRECTION TO DISP.       -1.050E-06   AT NODE        763   DOF  2
   INSTANCE: PART-1-1                                                                        
          THE FORCE     EQUILIBRIUM EQUATIONS HAVE CONVERGED

 AVERAGE MOMENT                      0.00       TIME AVG. MOMENT      1.454E-02
                                                (FROM FORCE     FIELD)
 LARGEST RESIDUAL MOMENT           -2.236E-11   AT NODE          2   DOF  6
   INSTANCE:                                                                                 
 LARGEST INCREMENT OF ROTATION     -7.487E-15   AT NODE          2   DOF  5
   INSTANCE: {assembly node}                                                                 
 LARGEST CORRECTION TO ROTATION    -1.545E-15   AT NODE          2   DOF  5
   INSTANCE: {assembly node}                                                                 
          THERE IS ZERO MOMENT    EVERYWHERE

 MAXIMUM DIFFERENCE IN CREEP STRAIN INCREMENT IS   5.420E-06
          TIME INCREMENT MAY NOW INCREASE TO     1.58    
          TIME INCREMENT REDUCED TO    1.02     TO MEET NEXT OUTPUT TIME POINT

 ITERATION SUMMARY FOR THE INCREMENT:   1 TOTAL ITERATIONS, OF WHICH
   0 ARE SEVERE DISCONTINUITY ITERATIONS AND  1 ARE EQUILIBRIUM ITERATIONS.

 TIME INCREMENT COMPLETED   1.11    ,  FRACTION OF STEP COMPLETED  4.608E-02
 STEP TIME COMPLETED        4.98    ,  TOTAL TIME COMPLETED         4.98    


  INCREMENT    20 STARTS. ATTEMPT NUMBER  1, TIME INCREMENT   1.02    

  NUMBER OF EQUATIONS =     2427     NUMBER OF FLOATING PT. OPERATIONS =  7.28E+07

  USING THE DIRECT SOLVER WITH   4 PROCESSORS

     CHECK POINT   START OF SOLVER    

     CHECK POINT  END OF SOLVER       

       ELAPSED USER TIME (SEC)      =   0.0000    
       ELAPSED SYSTEM TIME (SEC)    =  0.10000    
       ELAPSED TOTAL CPU TIME (SEC) =  0.10000    
       ELAPSED WALLCLOCK TIME (SEC) =          0

               CONVERGENCE CHECKS FOR EQUILIBRIUM ITERATION     1


 AVERAGE FORCE                      0.348       TIME AVG. FORCE       6.096E-02
 LARGEST RESIDUAL FORCE             5.129E-07   AT NODE         37   DOF  3
   INSTANCE: PART-1-1                                                                        
 LARGEST INCREMENT OF DISP.         1.705E-03   AT NODE        873   DOF  1
   INSTANCE: PART-1-1                                                                        
 LARGEST CORRECTION TO DISP.        8.668E-07   AT NODE        757   DOF  2
   INSTANCE: PART-1-1                                                                        
          THE FORCE     EQUILIBRIUM EQUATIONS HAVE CONVERGED

 AVERAGE MOMENT                      0.00       TIME AVG. MOMENT      2.064E-02
                                                (FROM FORCE     FIELD)
 LARGEST RESIDUAL MOMENT           -1.797E-11   AT NODE          2   DOF  5
   INSTANCE:                                                                                 
 LARGEST INCREMENT OF ROTATION     -2.962E-15   AT NODE          2   DOF  5
   INSTANCE: {assembly node}                                                                 
 LARGEST CORRECTION TO ROTATION     3.922E-15   AT NODE          2   DOF  5
   INSTANCE: {assembly node}                                                                 
          THERE IS ZERO MOMENT    EVERYWHERE

 MAXIMUM DIFFERENCE IN CREEP STRAIN INCREMENT IS   4.448E-06
          TIME INCREMENT MAY NOW INCREASE TO     1.68    

 ITERATION SUMMARY FOR THE INCREMENT:   1 TOTAL ITERATIONS, OF WHICH
   0 ARE SEVERE DISCONTINUITY ITERATIONS AND  1 ARE EQUILIBRIUM ITERATIONS.

 TIME INCREMENT COMPLETED   1.02    ,  FRACTION OF STEP COMPLETED  5.556E-02
 STEP TIME COMPLETED        6.00    ,  TOTAL TIME COMPLETED         6.00    


  INCREMENT    21 STARTS. ATTEMPT NUMBER  1, TIME INCREMENT   1.68    

  NUMBER OF EQUATIONS =     2427     NUMBER OF FLOATING PT. OPERATIONS =  7.28E+07

  USING THE DIRECT SOLVER WITH   4 PROCESSORS

     CHECK POINT   START OF SOLVER    

     CHECK POINT  END OF SOLVER       

       ELAPSED USER TIME (SEC)      =   0.0000    
       ELAPSED SYSTEM TIME (SEC)    =   0.0000    
       ELAPSED TOTAL CPU TIME (SEC) =   0.0000    
       ELAPSED WALLCLOCK TIME (SEC) =          0

               CONVERGENCE CHECKS FOR EQUILIBRIUM ITERATION     1


 AVERAGE FORCE                      0.443       TIME AVG. FORCE       7.914E-02
 LARGEST RESIDUAL FORCE             1.387E-06   AT NODE        807   DOF  3
   INSTANCE: PART-1-1                                                                        
 LARGEST INCREMENT OF DISP.         2.805E-03   AT NODE        869   DOF  1
   INSTANCE: PART-1-1                                                                        
 LARGEST CORRECTION TO DISP.        1.650E-06   AT NODE        757   DOF  2
   INSTANCE: PART-1-1                                                                        
          THE FORCE     EQUILIBRIUM EQUATIONS HAVE CONVERGED

 AVERAGE MOMENT                      0.00       TIME AVG. MOMENT      2.744E-02
                                                (FROM FORCE     FIELD)
 LARGEST RESIDUAL MOMENT            4.447E-11   AT NODE          2   DOF  6
   INSTANCE:                                                                                 
 LARGEST INCREMENT OF ROTATION     -1.308E-14   AT NODE          2   DOF  5
   INSTANCE: {assembly node}                                                                 
 LARGEST CORRECTION TO ROTATION    -8.208E-15   AT NODE          2   DOF  5
   INSTANCE: {assembly node}                                                                 
          THERE IS ZERO MOMENT    EVERYWHERE

 MAXIMUM DIFFERENCE IN CREEP STRAIN INCREMENT IS   1.160E-05
 

 ***NOTE: THE TIME INTEGRATION ACCURACY TOLERANCE HAS BEEN EXCEEDED.


  INCREMENT    21 STARTS. ATTEMPT NUMBER  2, TIME INCREMENT   1.23    

  NUMBER OF EQUATIONS =     2427     NUMBER OF FLOATING PT. OPERATIONS =  7.28E+07

  USING THE DIRECT SOLVER WITH   4 PROCESSORS

     CHECK POINT   START OF SOLVER    

     CHECK POINT  END OF SOLVER       

       ELAPSED USER TIME (SEC)      =   0.0000    
       ELAPSED SYSTEM TIME (SEC)    =   0.0000    
       ELAPSED TOTAL CPU TIME (SEC) =   0.0000    
       ELAPSED WALLCLOCK TIME (SEC) =          0

               CONVERGENCE CHECKS FOR EQUILIBRIUM ITERATION     1


 AVERAGE FORCE                      0.417       TIME AVG. FORCE       7.794E-02
 LARGEST RESIDUAL FORCE             7.796E-07   AT NODE        807   DOF  3
   INSTANCE: PART-1-1                                                                        
 LARGEST INCREMENT OF DISP.         2.055E-03   AT NODE        869   DOF  1
   INSTANCE: PART-1-1                                                                        
 LARGEST CORRECTION TO DISP.        1.021E-06   AT NODE        757   DOF  2
   INSTANCE: PART-1-1                                                                        
          THE FORCE     EQUILIBRIUM EQUATIONS HAVE CONVERGED

 AVERAGE MOMENT                      0.00       TIME AVG. MOMENT      2.744E-02
                                                (FROM FORCE     FIELD)
 LARGEST RESIDUAL MOMENT            2.898E-11   AT NODE          2   DOF  6
   INSTANCE:                                                                                 
 LARGEST INCREMENT OF ROTATION     -1.052E-14   AT NODE          2   DOF  5
   INSTANCE: {assembly node}                                                                 
 LARGEST CORRECTION TO ROTATION    -6.946E-15   AT NODE          2   DOF  5
   INSTANCE: {assembly node}                                                                 
          THERE IS ZERO MOMENT    EVERYWHERE

 MAXIMUM DIFFERENCE IN CREEP STRAIN INCREMENT IS   6.264E-06

 ITERATION SUMMARY FOR THE INCREMENT:   1 TOTAL ITERATIONS, OF WHICH
   0 ARE SEVERE DISCONTINUITY ITERATIONS AND  1 ARE EQUILIBRIUM ITERATIONS.

 TIME INCREMENT COMPLETED   1.23    ,  FRACTION OF STEP COMPLETED  6.697E-02
 STEP TIME COMPLETED        7.23    ,  TOTAL TIME COMPLETED         7.23    


  INCREMENT    22 STARTS. ATTEMPT NUMBER  1, TIME INCREMENT   1.23    

  NUMBER OF EQUATIONS =     2427     NUMBER OF FLOATING PT. OPERATIONS =  7.28E+07

  USING THE DIRECT SOLVER WITH   4 PROCESSORS

     CHECK POINT   START OF SOLVER    

     CHECK POINT  END OF SOLVER       

       ELAPSED USER TIME (SEC)      =  0.10000    
       ELAPSED SYSTEM TIME (SEC)    =   0.0000    
       ELAPSED TOTAL CPU TIME (SEC) =  0.10000    
       ELAPSED WALLCLOCK TIME (SEC) =          0

               CONVERGENCE CHECKS FOR EQUILIBRIUM ITERATION     1


 AVERAGE FORCE                      0.487       TIME AVG. FORCE       9.652E-02
 LARGEST RESIDUAL FORCE            -9.861E-07   AT NODE        839   DOF  3
   INSTANCE: PART-1-1                                                                        
 LARGEST INCREMENT OF DISP.         2.055E-03   AT NODE        874   DOF  1
   INSTANCE: PART-1-1                                                                        
 LARGEST CORRECTION TO DISP.       -1.031E-06   AT NODE        749   DOF  2
   INSTANCE: PART-1-1                                                                        
          THE FORCE     EQUILIBRIUM EQUATIONS HAVE CONVERGED

 AVERAGE MOMENT                      0.00       TIME AVG. MOMENT      3.507E-02
                                                (FROM FORCE     FIELD)
 LARGEST RESIDUAL MOMENT           -8.545E-12   AT NODE          2   DOF  5
   INSTANCE:                                                                                 
 LARGEST INCREMENT OF ROTATION     -5.773E-15   AT NODE          2   DOF  5
   INSTANCE: {assembly node}                                                                 
 LARGEST CORRECTION TO ROTATION     4.742E-15   AT NODE          2   DOF  5
   INSTANCE: {assembly node}                                                                 
          THERE IS ZERO MOMENT    EVERYWHERE

 MAXIMUM DIFFERENCE IN CREEP STRAIN INCREMENT IS   6.061E-06

 ITERATION SUMMARY FOR THE INCREMENT:   1 TOTAL ITERATIONS, OF WHICH
   0 ARE SEVERE DISCONTINUITY ITERATIONS AND  1 ARE EQUILIBRIUM ITERATIONS.

 TIME INCREMENT COMPLETED   1.23    ,  FRACTION OF STEP COMPLETED  7.839E-02
 STEP TIME COMPLETED        8.47    ,  TOTAL TIME COMPLETED         8.47    


  INCREMENT    23 STARTS. ATTEMPT NUMBER  1, TIME INCREMENT   1.23    

  NUMBER OF EQUATIONS =     2427     NUMBER OF FLOATING PT. OPERATIONS =  7.28E+07

  USING THE DIRECT SOLVER WITH   4 PROCESSORS

     CHECK POINT   START OF SOLVER    

     CHECK POINT  END OF SOLVER       

       ELAPSED USER TIME (SEC)      =   0.0000    
       ELAPSED SYSTEM TIME (SEC)    =   0.0000    
       ELAPSED TOTAL CPU TIME (SEC) =   0.0000    
       ELAPSED WALLCLOCK TIME (SEC) =          0

               CONVERGENCE CHECKS FOR EQUILIBRIUM ITERATION     1


 AVERAGE FORCE                      0.554       TIME AVG. FORCE       0.116    
 LARGEST RESIDUAL FORCE            -1.090E-06   AT NODE        835   DOF  3
   INSTANCE: PART-1-1                                                                        
 LARGEST INCREMENT OF DISP.         2.055E-03   AT NODE        869   DOF  1
   INSTANCE: PART-1-1                                                                        
 LARGEST CORRECTION TO DISP.        9.393E-07   AT NODE        757   DOF  2
   INSTANCE: PART-1-1                                                                        
          THE FORCE     EQUILIBRIUM EQUATIONS HAVE CONVERGED

 AVERAGE MOMENT                      0.00       TIME AVG. MOMENT      4.344E-02
                                                (FROM FORCE     FIELD)
 LARGEST RESIDUAL MOMENT           -9.280E-12   AT NODE          2   DOF  5
   INSTANCE:                                                                                 
 LARGEST INCREMENT OF ROTATION     -8.376E-15   AT NODE          2   DOF  5
   INSTANCE: {assembly node}                                                                 
 LARGEST CORRECTION TO ROTATION    -2.603E-15   AT NODE          2   DOF  5
   INSTANCE: {assembly node}                                                                 
          THERE IS ZERO MOMENT    EVERYWHERE

 MAXIMUM DIFFERENCE IN CREEP STRAIN INCREMENT IS   5.869E-06
          TIME INCREMENT MAY NOW INCREASE TO     1.63    

 ITERATION SUMMARY FOR THE INCREMENT:   1 TOTAL ITERATIONS, OF WHICH
   0 ARE SEVERE DISCONTINUITY ITERATIONS AND  1 ARE EQUILIBRIUM ITERATIONS.

 TIME INCREMENT COMPLETED   1.23    ,  FRACTION OF STEP COMPLETED  8.980E-02
 STEP TIME COMPLETED        9.70    ,  TOTAL TIME COMPLETED         9.70    


  INCREMENT    24 STARTS. ATTEMPT NUMBER  1, TIME INCREMENT   1.63    

  NUMBER OF EQUATIONS =     2427     NUMBER OF FLOATING PT. OPERATIONS =  7.28E+07

  USING THE DIRECT SOLVER WITH   4 PROCESSORS

     CHECK POINT   START OF SOLVER    

     CHECK POINT  END OF SOLVER       

       ELAPSED USER TIME (SEC)      =  0.10000    
       ELAPSED SYSTEM TIME (SEC)    =   0.0000    
       ELAPSED TOTAL CPU TIME (SEC) =  0.10000    
       ELAPSED WALLCLOCK TIME (SEC) =          0

               CONVERGENCE CHECKS FOR EQUILIBRIUM ITERATION     1


 AVERAGE FORCE                      0.641       TIME AVG. FORCE       0.138    
 LARGEST RESIDUAL FORCE            -1.836E-06   AT NODE         69   DOF  3
   INSTANCE: PART-1-1                                                                        
 LARGEST INCREMENT OF DISP.         2.711E-03   AT NODE        870   DOF  1
   INSTANCE: PART-1-1                                                                        
 LARGEST CORRECTION TO DISP.        1.265E-06   AT NODE        127   DOF  2
   INSTANCE: PART-1-1                                                                        
          THE FORCE     EQUILIBRIUM EQUATIONS HAVE CONVERGED

 AVERAGE MOMENT                      0.00       TIME AVG. MOMENT      5.238E-02
                                                (FROM FORCE     FIELD)
 LARGEST RESIDUAL MOMENT            8.266E-12   AT NODE          2   DOF  5
   INSTANCE:                                                                                 
 LARGEST INCREMENT OF ROTATION     -1.119E-14   AT NODE          2   DOF  5
   INSTANCE: {assembly node}                                                                 
 LARGEST CORRECTION TO ROTATION     4.402E-16   AT NODE          2   DOF  4
   INSTANCE: {assembly node}                                                                 
          THERE IS ZERO MOMENT    EVERYWHERE

 MAXIMUM DIFFERENCE IN CREEP STRAIN INCREMENT IS   9.855E-06
          TIME INCREMENT REDUCED TO   0.675     TO MEET NEXT OUTPUT TIME POINT

 ITERATION SUMMARY FOR THE INCREMENT:   1 TOTAL ITERATIONS, OF WHICH
   0 ARE SEVERE DISCONTINUITY ITERATIONS AND  1 ARE EQUILIBRIUM ITERATIONS.

 TIME INCREMENT COMPLETED   1.63    ,  FRACTION OF STEP COMPLETED  0.105    
 STEP TIME COMPLETED        11.3    ,  TOTAL TIME COMPLETED         11.3    


  INCREMENT    25 STARTS. ATTEMPT NUMBER  1, TIME INCREMENT  0.675    

  NUMBER OF EQUATIONS =     2427     NUMBER OF FLOATING PT. OPERATIONS =  7.28E+07

  USING THE DIRECT SOLVER WITH   4 PROCESSORS

     CHECK POINT   START OF SOLVER    

     CHECK POINT  END OF SOLVER       

       ELAPSED USER TIME (SEC)      =  0.10000    
       ELAPSED SYSTEM TIME (SEC)    =   0.0000    
       ELAPSED TOTAL CPU TIME (SEC) =  0.10000    
       ELAPSED WALLCLOCK TIME (SEC) =          0

               CONVERGENCE CHECKS FOR EQUILIBRIUM ITERATION     1


 AVERAGE FORCE                      0.677       TIME AVG. FORCE       0.160    
 LARGEST RESIDUAL FORCE             7.006E-07   AT NODE        811   DOF  3
   INSTANCE: PART-1-1                                                                        
 LARGEST INCREMENT OF DISP.         1.125E-03   AT NODE        869   DOF  1
   INSTANCE: PART-1-1                                                                        
 LARGEST CORRECTION TO DISP.        4.351E-07   AT NODE        757   DOF  2
   INSTANCE: PART-1-1                                                                        
          THE FORCE     EQUILIBRIUM EQUATIONS HAVE CONVERGED

 AVERAGE MOMENT                      0.00       TIME AVG. MOMENT      6.222E-02
                                                (FROM FORCE     FIELD)
 LARGEST RESIDUAL MOMENT            3.636E-11   AT NODE          2   DOF  6
   INSTANCE:                                                                                 
 LARGEST INCREMENT OF ROTATION     -3.758E-15   AT NODE          2   DOF  5
   INSTANCE: {assembly node}                                                                 
 LARGEST CORRECTION TO ROTATION     8.848E-16   AT NODE          2   DOF  5
   INSTANCE: {assembly node}                                                                 
          THERE IS ZERO MOMENT    EVERYWHERE

 MAXIMUM DIFFERENCE IN CREEP STRAIN INCREMENT IS   1.645E-06
          TIME INCREMENT MAY NOW INCREASE TO     1.63    

 ITERATION SUMMARY FOR THE INCREMENT:   1 TOTAL ITERATIONS, OF WHICH
   0 ARE SEVERE DISCONTINUITY ITERATIONS AND  1 ARE EQUILIBRIUM ITERATIONS.

 TIME INCREMENT COMPLETED  0.675    ,  FRACTION OF STEP COMPLETED  0.111    
 STEP TIME COMPLETED        12.0    ,  TOTAL TIME COMPLETED         12.0    


  INCREMENT    26 STARTS. ATTEMPT NUMBER  1, TIME INCREMENT   1.63    

  NUMBER OF EQUATIONS =     2427     NUMBER OF FLOATING PT. OPERATIONS =  7.28E+07

  USING THE DIRECT SOLVER WITH   4 PROCESSORS

     CHECK POINT   START OF SOLVER    

     CHECK POINT  END OF SOLVER       

       ELAPSED USER TIME (SEC)      =  0.10000    
       ELAPSED SYSTEM TIME (SEC)    =   0.0000    
       ELAPSED TOTAL CPU TIME (SEC) =  0.10000    
       ELAPSED WALLCLOCK TIME (SEC) =          0

               CONVERGENCE CHECKS FOR EQUILIBRIUM ITERATION     1


 AVERAGE FORCE                      0.763       TIME AVG. FORCE       0.183    
 LARGEST RESIDUAL FORCE            -1.270E-06   AT NODE        839   DOF  3
   INSTANCE: PART-1-1                                                                        
 LARGEST INCREMENT OF DISP.         2.711E-03   AT NODE        869   DOF  1
   INSTANCE: PART-1-1                                                                        
 LARGEST CORRECTION TO DISP.       -6.837E-07   AT NODE        763   DOF  2
   INSTANCE: PART-1-1                                                                        
          THE FORCE     EQUILIBRIUM EQUATIONS HAVE CONVERGED

 AVERAGE MOMENT                      0.00       TIME AVG. MOMENT      7.192E-02
                                                (FROM FORCE     FIELD)
 LARGEST RESIDUAL MOMENT           -1.383E-10   AT NODE          2   DOF  6
   INSTANCE:                                                                                 
 LARGEST INCREMENT OF ROTATION     -1.077E-14   AT NODE          2   DOF  5
   INSTANCE: {assembly node}                                                                 
 LARGEST CORRECTION TO ROTATION    -1.717E-15   AT NODE          2   DOF  5
   INSTANCE: {assembly node}                                                                 
          THERE IS ZERO MOMENT    EVERYWHERE

 MAXIMUM DIFFERENCE IN CREEP STRAIN INCREMENT IS   9.323E-06

 ITERATION SUMMARY FOR THE INCREMENT:   1 TOTAL ITERATIONS, OF WHICH
   0 ARE SEVERE DISCONTINUITY ITERATIONS AND  1 ARE EQUILIBRIUM ITERATIONS.

 TIME INCREMENT COMPLETED   1.63    ,  FRACTION OF STEP COMPLETED  0.126    
 STEP TIME COMPLETED        13.6    ,  TOTAL TIME COMPLETED         13.6    


  INCREMENT    27 STARTS. ATTEMPT NUMBER  1, TIME INCREMENT   1.63    

  NUMBER OF EQUATIONS =     2427     NUMBER OF FLOATING PT. OPERATIONS =  7.28E+07

  USING THE DIRECT SOLVER WITH   4 PROCESSORS

     CHECK POINT   START OF SOLVER    

     CHECK POINT  END OF SOLVER       

       ELAPSED USER TIME (SEC)      =  0.10000    
       ELAPSED SYSTEM TIME (SEC)    =   0.0000    
       ELAPSED TOTAL CPU TIME (SEC) =  0.10000    
       ELAPSED WALLCLOCK TIME (SEC) =          0

               CONVERGENCE CHECKS FOR EQUILIBRIUM ITERATION     1


 AVERAGE FORCE                      0.849       TIME AVG. FORCE       0.208    
 LARGEST RESIDUAL FORCE             2.220E-06   AT NODE        811   DOF  3
   INSTANCE: PART-1-1                                                                        
 LARGEST INCREMENT OF DISP.         2.711E-03   AT NODE        875   DOF  1
   INSTANCE: PART-1-1                                                                        
 LARGEST CORRECTION TO DISP.        9.873E-07   AT NODE        743   DOF  2
   INSTANCE: PART-1-1                                                                        
          THE FORCE     EQUILIBRIUM EQUATIONS HAVE CONVERGED

 AVERAGE MOMENT                      0.00       TIME AVG. MOMENT      8.236E-02
                                                (FROM FORCE     FIELD)
 LARGEST RESIDUAL MOMENT            4.226E-11   AT NODE          2   DOF  6
   INSTANCE:                                                                                 
 LARGEST INCREMENT OF ROTATION     -1.123E-14   AT NODE          2   DOF  5
   INSTANCE: {assembly node}                                                                 
 LARGEST CORRECTION TO ROTATION    -1.293E-15   AT NODE          2   DOF  6
   INSTANCE: {assembly node}                                                                 
          THERE IS ZERO MOMENT    EVERYWHERE

 MAXIMUM DIFFERENCE IN CREEP STRAIN INCREMENT IS   8.982E-06

 ITERATION SUMMARY FOR THE INCREMENT:   1 TOTAL ITERATIONS, OF WHICH
   0 ARE SEVERE DISCONTINUITY ITERATIONS AND  1 ARE EQUILIBRIUM ITERATIONS.

 TIME INCREMENT COMPLETED   1.63    ,  FRACTION OF STEP COMPLETED  0.141    
 STEP TIME COMPLETED        15.3    ,  TOTAL TIME COMPLETED         15.3    


  INCREMENT    28 STARTS. ATTEMPT NUMBER  1, TIME INCREMENT   1.63    

  NUMBER OF EQUATIONS =     2427     NUMBER OF FLOATING PT. OPERATIONS =  7.28E+07

  USING THE DIRECT SOLVER WITH   4 PROCESSORS

     CHECK POINT   START OF SOLVER    

     CHECK POINT  END OF SOLVER       

       ELAPSED USER TIME (SEC)      =  0.10000    
       ELAPSED SYSTEM TIME (SEC)    =   0.0000    
       ELAPSED TOTAL CPU TIME (SEC) =  0.10000    
       ELAPSED WALLCLOCK TIME (SEC) =          0

               CONVERGENCE CHECKS FOR EQUILIBRIUM ITERATION     1


 AVERAGE FORCE                      0.933       TIME AVG. FORCE       0.234    
 LARGEST RESIDUAL FORCE             2.061E-06   AT NODE        811   DOF  3
   INSTANCE: PART-1-1                                                                        
 LARGEST INCREMENT OF DISP.         2.711E-03   AT NODE        869   DOF  1
   INSTANCE: PART-1-1                                                                        
 LARGEST CORRECTION TO DISP.        7.950E-07   AT NODE        127   DOF  2
   INSTANCE: PART-1-1                                                                        
          THE FORCE     EQUILIBRIUM EQUATIONS HAVE CONVERGED

 AVERAGE MOMENT                      0.00       TIME AVG. MOMENT      9.346E-02
                                                (FROM FORCE     FIELD)
 LARGEST RESIDUAL MOMENT           -6.615E-12   AT NODE          2   DOF  6
   INSTANCE:                                                                                 
 LARGEST INCREMENT OF ROTATION     -1.075E-14   AT NODE          2   DOF  5
   INSTANCE: {assembly node}                                                                 
 LARGEST CORRECTION TO ROTATION     1.229E-15   AT NODE          2   DOF  6
   INSTANCE: {assembly node}                                                                 
          THERE IS ZERO MOMENT    EVERYWHERE

 MAXIMUM DIFFERENCE IN CREEP STRAIN INCREMENT IS   8.669E-06
          TIME INCREMENT REDUCED TO    1.12     TO MEET NEXT OUTPUT TIME POINT

 ITERATION SUMMARY FOR THE INCREMENT:   1 TOTAL ITERATIONS, OF WHICH
   0 ARE SEVERE DISCONTINUITY ITERATIONS AND  1 ARE EQUILIBRIUM ITERATIONS.

 TIME INCREMENT COMPLETED   1.63    ,  FRACTION OF STEP COMPLETED  0.156    
 STEP TIME COMPLETED        16.9    ,  TOTAL TIME COMPLETED         16.9    


  INCREMENT    29 STARTS. ATTEMPT NUMBER  1, TIME INCREMENT   1.12    

  NUMBER OF EQUATIONS =     2427     NUMBER OF FLOATING PT. OPERATIONS =  7.28E+07

  USING THE DIRECT SOLVER WITH   4 PROCESSORS

     CHECK POINT   START OF SOLVER    

     CHECK POINT  END OF SOLVER       

       ELAPSED USER TIME (SEC)      =  0.10000    
       ELAPSED SYSTEM TIME (SEC)    =   0.0000    
       ELAPSED TOTAL CPU TIME (SEC) =  0.10000    
       ELAPSED WALLCLOCK TIME (SEC) =          0

               CONVERGENCE CHECKS FOR EQUILIBRIUM ITERATION     1


 AVERAGE FORCE                      0.992       TIME AVG. FORCE       0.260    
 LARGEST RESIDUAL FORCE            -1.327E-06   AT NODE        804   DOF  3
   INSTANCE: PART-1-1                                                                        
 LARGEST INCREMENT OF DISP.         1.868E-03   AT NODE        870   DOF  1
   INSTANCE: PART-1-1                                                                        
 LARGEST CORRECTION TO DISP.       -4.493E-07   AT NODE        756   DOF  2
   INSTANCE: PART-1-1                                                                        
          THE FORCE     EQUILIBRIUM EQUATIONS HAVE CONVERGED

 AVERAGE MOMENT                      0.00       TIME AVG. MOMENT      0.105    
                                                (FROM FORCE     FIELD)
 LARGEST RESIDUAL MOMENT           -9.550E-12   AT NODE          2   DOF  6
   INSTANCE:                                                                                 
 LARGEST INCREMENT OF ROTATION     -8.055E-15   AT NODE          2   DOF  5
   INSTANCE: {assembly node}                                                                 
 LARGEST CORRECTION TO ROTATION    -6.464E-16   AT NODE          2   DOF  5
   INSTANCE: {assembly node}                                                                 
          THERE IS ZERO MOMENT    EVERYWHERE

 MAXIMUM DIFFERENCE IN CREEP STRAIN INCREMENT IS   3.989E-06
          TIME INCREMENT MAY NOW INCREASE TO     1.67    

 ITERATION SUMMARY FOR THE INCREMENT:   1 TOTAL ITERATIONS, OF WHICH
   0 ARE SEVERE DISCONTINUITY ITERATIONS AND  1 ARE EQUILIBRIUM ITERATIONS.

 TIME INCREMENT COMPLETED   1.12    ,  FRACTION OF STEP COMPLETED  0.167    
 STEP TIME COMPLETED        18.0    ,  TOTAL TIME COMPLETED         18.0    


  INCREMENT    30 STARTS. ATTEMPT NUMBER  1, TIME INCREMENT   1.67    

  NUMBER OF EQUATIONS =     2427     NUMBER OF FLOATING PT. OPERATIONS =  7.28E+07

  USING THE DIRECT SOLVER WITH   4 PROCESSORS

     CHECK POINT   START OF SOLVER    

     CHECK POINT  END OF SOLVER       

       ELAPSED USER TIME (SEC)      =  0.10000    
       ELAPSED SYSTEM TIME (SEC)    =   0.0000    
       ELAPSED TOTAL CPU TIME (SEC) =  0.10000    
       ELAPSED WALLCLOCK TIME (SEC) =          0

               CONVERGENCE CHECKS FOR EQUILIBRIUM ITERATION     1


 AVERAGE FORCE                       1.08       TIME AVG. FORCE       0.287    
 LARGEST RESIDUAL FORCE             9.313E-07   AT NODE        772   DOF  3
   INSTANCE: PART-1-1                                                                        
 LARGEST INCREMENT OF DISP.         2.775E-03   AT NODE        869   DOF  1
[...]
 LARGEST INCREMENT OF ROTATION      1.825E-15   AT NODE          2   DOF  5
   INSTANCE: {assembly node}                                                                 
 LARGEST CORRECTION TO ROTATION    -1.829E-15   AT NODE          2   DOF  5
   INSTANCE: {assembly node}                                                                 
          THERE IS ZERO MOMENT    EVERYWHERE

 MAXIMUM DIFFERENCE IN CREEP STRAIN INCREMENT IS   1.444E-05
 

 ***NOTE: THE TIME INTEGRATION ACCURACY TOLERANCE HAS BEEN EXCEEDED.


  INCREMENT    97 STARTS. ATTEMPT NUMBER  2, TIME INCREMENT  0.960    

  NUMBER OF EQUATIONS =     2427     NUMBER OF FLOATING PT. OPERATIONS =  7.28E+07

  USING THE DIRECT SOLVER WITH   4 PROCESSORS

     CHECK POINT   START OF SOLVER    

     CHECK POINT  END OF SOLVER       

       ELAPSED USER TIME (SEC)      =   0.0000    
       ELAPSED SYSTEM TIME (SEC)    =   0.0000    
       ELAPSED TOTAL CPU TIME (SEC) =   0.0000    
       ELAPSED WALLCLOCK TIME (SEC) =          0

               CONVERGENCE CHECKS FOR EQUILIBRIUM ITERATION     1


 AVERAGE FORCE                       6.70       TIME AVG. FORCE        2.87    
 LARGEST RESIDUAL FORCE             5.190E-04   AT NODE        174   DOF  3
   INSTANCE: PART-1-1                                                                        
 LARGEST INCREMENT OF DISP.         1.601E-03   AT NODE        869   DOF  1
   INSTANCE: PART-1-1                                                                        
 LARGEST CORRECTION TO DISP.        5.944E-06   AT NODE        686   DOF  2
   INSTANCE: PART-1-1                                                                        
          THE FORCE     EQUILIBRIUM EQUATIONS HAVE CONVERGED

 AVERAGE MOMENT                      0.00       TIME AVG. MOMENT       1.27    
                                                (FROM FORCE     FIELD)
 LARGEST RESIDUAL MOMENT            2.808E-11   AT NODE          2   DOF  5
   INSTANCE:                                                                                 
 LARGEST INCREMENT OF ROTATION     -2.332E-16   AT NODE          2   DOF  4
   INSTANCE: {assembly node}                                                                 
 LARGEST CORRECTION TO ROTATION    -2.035E-15   AT NODE          2   DOF  5
   INSTANCE: {assembly node}                                                                 
          THERE IS ZERO MOMENT    EVERYWHERE

 MAXIMUM DIFFERENCE IN CREEP STRAIN INCREMENT IS   1.693E-06

 ITERATION SUMMARY FOR THE INCREMENT:   1 TOTAL ITERATIONS, OF WHICH
   0 ARE SEVERE DISCONTINUITY ITERATIONS AND  1 ARE EQUILIBRIUM ITERATIONS.

 TIME INCREMENT COMPLETED  0.960    ,  FRACTION OF STEP COMPLETED  0.953    
 STEP TIME COMPLETED        103.    ,  TOTAL TIME COMPLETED         103.    


  INCREMENT    98 STARTS. ATTEMPT NUMBER  1, TIME INCREMENT  0.960    

  NUMBER OF EQUATIONS =     2427     NUMBER OF FLOATING PT. OPERATIONS =  7.28E+07

  USING THE DIRECT SOLVER WITH   4 PROCESSORS

     CHECK POINT   START OF SOLVER    

     CHECK POINT  END OF SOLVER       

       ELAPSED USER TIME (SEC)      =   0.0000    
       ELAPSED SYSTEM TIME (SEC)    =   0.0000    
       ELAPSED TOTAL CPU TIME (SEC) =   0.0000    
       ELAPSED WALLCLOCK TIME (SEC) =          0

               CONVERGENCE CHECKS FOR EQUILIBRIUM ITERATION     1


 AVERAGE FORCE                       6.81       TIME AVG. FORCE        2.91    
 LARGEST RESIDUAL FORCE             5.877E-05   AT NODE        699   DOF  3
   INSTANCE: PART-1-1                                                                        
 LARGEST INCREMENT OF DISP.         1.601E-03   AT NODE        848   DOF  1
   INSTANCE: PART-1-1                                                                        
 LARGEST CORRECTION TO DISP.       -6.000E-07   AT NODE        680   DOF  2
   INSTANCE: PART-1-1                                                                        
          THE FORCE     EQUILIBRIUM EQUATIONS HAVE CONVERGED

 AVERAGE MOMENT                      0.00       TIME AVG. MOMENT       1.29    
                                                (FROM FORCE     FIELD)
 LARGEST RESIDUAL MOMENT           -1.922E-10   AT NODE          2   DOF  6
   INSTANCE:                                                                                 
 LARGEST INCREMENT OF ROTATION      1.507E-15   AT NODE          2   DOF  5
   INSTANCE: {assembly node}                                                                 
 LARGEST CORRECTION TO ROTATION     1.392E-15   AT NODE          2   DOF  5
   INSTANCE: {assembly node}                                                                 
          THERE IS ZERO MOMENT    EVERYWHERE

 MAXIMUM DIFFERENCE IN CREEP STRAIN INCREMENT IS   1.706E-06

 ITERATION SUMMARY FOR THE INCREMENT:   1 TOTAL ITERATIONS, OF WHICH
   0 ARE SEVERE DISCONTINUITY ITERATIONS AND  1 ARE EQUILIBRIUM ITERATIONS.

 TIME INCREMENT COMPLETED  0.960    ,  FRACTION OF STEP COMPLETED  0.962    
 STEP TIME COMPLETED        104.    ,  TOTAL TIME COMPLETED         104.    


  INCREMENT    99 STARTS. ATTEMPT NUMBER  1, TIME INCREMENT  0.960    

  NUMBER OF EQUATIONS =     2427     NUMBER OF FLOATING PT. OPERATIONS =  7.28E+07

  USING THE DIRECT SOLVER WITH   4 PROCESSORS

     CHECK POINT   START OF SOLVER    

     CHECK POINT  END OF SOLVER       

       ELAPSED USER TIME (SEC)      =  0.10000    
       ELAPSED SYSTEM TIME (SEC)    =   0.0000    
       ELAPSED TOTAL CPU TIME (SEC) =  0.10000    
       ELAPSED WALLCLOCK TIME (SEC) =          0

               CONVERGENCE CHECKS FOR EQUILIBRIUM ITERATION     1


 AVERAGE FORCE                       6.90       TIME AVG. FORCE        2.95    
 LARGEST RESIDUAL FORCE             6.332E-05   AT NODE        699   DOF  3
   INSTANCE: PART-1-1                                                                        
 LARGEST INCREMENT OF DISP.         1.601E-03   AT NODE        853   DOF  1
   INSTANCE: PART-1-1                                                                        
 LARGEST CORRECTION TO DISP.       -6.326E-07   AT NODE        225   DOF  2
   INSTANCE: PART-1-1                                                                        
          THE FORCE     EQUILIBRIUM EQUATIONS HAVE CONVERGED

 AVERAGE MOMENT                      0.00       TIME AVG. MOMENT       1.31    
                                                (FROM FORCE     FIELD)
 LARGEST RESIDUAL MOMENT            2.260E-10   AT NODE          2   DOF  6
   INSTANCE:                                                                                 
 LARGEST INCREMENT OF ROTATION     -5.207E-16   AT NODE          2   DOF  6
   INSTANCE: {assembly node}                                                                 
 LARGEST CORRECTION TO ROTATION    -1.292E-15   AT NODE          2   DOF  5
   INSTANCE: {assembly node}                                                                 
          THERE IS ZERO MOMENT    EVERYWHERE

 MAXIMUM DIFFERENCE IN CREEP STRAIN INCREMENT IS   1.825E-06
          TIME INCREMENT MAY NOW INCREASE TO     1.92    

 ITERATION SUMMARY FOR THE INCREMENT:   1 TOTAL ITERATIONS, OF WHICH
   0 ARE SEVERE DISCONTINUITY ITERATIONS AND  1 ARE EQUILIBRIUM ITERATIONS.

 TIME INCREMENT COMPLETED  0.960    ,  FRACTION OF STEP COMPLETED  0.971    
 STEP TIME COMPLETED        105.    ,  TOTAL TIME COMPLETED         105.    


  INCREMENT   100 STARTS. ATTEMPT NUMBER  1, TIME INCREMENT   1.92    

  NUMBER OF EQUATIONS =     2427     NUMBER OF FLOATING PT. OPERATIONS =  7.28E+07

  USING THE DIRECT SOLVER WITH   4 PROCESSORS

     CHECK POINT   START OF SOLVER    

     CHECK POINT  END OF SOLVER       

       ELAPSED USER TIME (SEC)      =  0.10000    
       ELAPSED SYSTEM TIME (SEC)    =   0.0000    
       ELAPSED TOTAL CPU TIME (SEC) =  0.10000    
       ELAPSED WALLCLOCK TIME (SEC) =          0

               CONVERGENCE CHECKS FOR EQUILIBRIUM ITERATION     1


 AVERAGE FORCE                       7.02       TIME AVG. FORCE        2.99    
 LARGEST RESIDUAL FORCE            -1.815E-03   AT NODE        706   DOF  3
   INSTANCE: PART-1-1                                                                        
 LARGEST INCREMENT OF DISP.         3.201E-03   AT NODE        841   DOF  1
   INSTANCE: PART-1-1                                                                        
 LARGEST CORRECTION TO DISP.        3.427E-05   AT NODE        686   DOF  2
   INSTANCE: PART-1-1                                                                        
 ESTIMATE OF DISP.    CORRECTION    6.547E-08
 FORCE     EQUILIB. ACCEPTED BASED ON SMALL RESIDUAL AND ESTIMATED CORRECTION

 AVERAGE MOMENT                      0.00       TIME AVG. MOMENT       1.33    
                                                (FROM FORCE     FIELD)
 LARGEST RESIDUAL MOMENT           -1.719E-10   AT NODE          2   DOF  6
   INSTANCE:                                                                                 
 LARGEST INCREMENT OF ROTATION      4.587E-15   AT NODE          2   DOF  5
   INSTANCE: {assembly node}                                                                 
 LARGEST CORRECTION TO ROTATION     4.156E-15   AT NODE          2   DOF  5
   INSTANCE: {assembly node}                                                                 
          THERE IS ZERO MOMENT    EVERYWHERE

 MAXIMUM DIFFERENCE IN CREEP STRAIN INCREMENT IS   2.388E-05
 

 ***NOTE: THE TIME INTEGRATION ACCURACY TOLERANCE HAS BEEN EXCEEDED.


  INCREMENT   100 STARTS. ATTEMPT NUMBER  2, TIME INCREMENT  0.684    

  NUMBER OF EQUATIONS =     2427     NUMBER OF FLOATING PT. OPERATIONS =  7.28E+07

  USING THE DIRECT SOLVER WITH   4 PROCESSORS

     CHECK POINT   START OF SOLVER    

     CHECK POINT  END OF SOLVER       

       ELAPSED USER TIME (SEC)      =   0.0000    
       ELAPSED SYSTEM TIME (SEC)    =   0.0000    
       ELAPSED TOTAL CPU TIME (SEC) =   0.0000    
       ELAPSED WALLCLOCK TIME (SEC) =          0

               CONVERGENCE CHECKS FOR EQUILIBRIUM ITERATION     1


 AVERAGE FORCE                       6.91       TIME AVG. FORCE        2.99    
 LARGEST RESIDUAL FORCE            -1.037E-03   AT NODE        174   DOF  3
   INSTANCE: PART-1-1                                                                        
 LARGEST INCREMENT OF DISP.         1.140E-03   AT NODE        869   DOF  1
   INSTANCE: PART-1-1                                                                        
 LARGEST CORRECTION TO DISP.       -9.038E-06   AT NODE        686   DOF  2
   INSTANCE: PART-1-1                                                                        
          THE FORCE     EQUILIBRIUM EQUATIONS HAVE CONVERGED

 AVERAGE MOMENT                      0.00       TIME AVG. MOMENT       1.33    
                                                (FROM FORCE     FIELD)
 LARGEST RESIDUAL MOMENT           -1.144E-10   AT NODE          2   DOF  6
   INSTANCE:                                                                                 
 LARGEST INCREMENT OF ROTATION      3.577E-16   AT NODE          2   DOF  6
   INSTANCE: {assembly node}                                                                 
 LARGEST CORRECTION TO ROTATION     7.285E-16   AT NODE          2   DOF  6
   INSTANCE: {assembly node}                                                                 
          THERE IS ZERO MOMENT    EVERYWHERE

 MAXIMUM DIFFERENCE IN CREEP STRAIN INCREMENT IS   2.005E-06

 ITERATION SUMMARY FOR THE INCREMENT:   1 TOTAL ITERATIONS, OF WHICH
   0 ARE SEVERE DISCONTINUITY ITERATIONS AND  1 ARE EQUILIBRIUM ITERATIONS.

 TIME INCREMENT COMPLETED  0.684    ,  FRACTION OF STEP COMPLETED  0.977    
 STEP TIME COMPLETED        106.    ,  TOTAL TIME COMPLETED         106.    


  INCREMENT   101 STARTS. ATTEMPT NUMBER  1, TIME INCREMENT  0.684    

  NUMBER OF EQUATIONS =     2427     NUMBER OF FLOATING PT. OPERATIONS =  7.28E+07

  USING THE DIRECT SOLVER WITH   4 PROCESSORS

     CHECK POINT   START OF SOLVER    

     CHECK POINT  END OF SOLVER       

       ELAPSED USER TIME (SEC)      =  0.10000    
       ELAPSED SYSTEM TIME (SEC)    =   0.0000    
       ELAPSED TOTAL CPU TIME (SEC) =  0.10000    
       ELAPSED WALLCLOCK TIME (SEC) =          0

               CONVERGENCE CHECKS FOR EQUILIBRIUM ITERATION     1


 AVERAGE FORCE                       7.01       TIME AVG. FORCE        3.03    
 LARGEST RESIDUAL FORCE             3.660E-05   AT NODE        209   DOF  3
   INSTANCE: PART-1-1                                                                        
 LARGEST INCREMENT OF DISP.         1.140E-03   AT NODE        845   DOF  1
   INSTANCE: PART-1-1                                                                        
 LARGEST CORRECTION TO DISP.        3.488E-07   AT NODE        686   DOF  2
   INSTANCE: PART-1-1                                                                        
          THE FORCE     EQUILIBRIUM EQUATIONS HAVE CONVERGED

 AVERAGE MOMENT                      0.00       TIME AVG. MOMENT       1.35    
                                                (FROM FORCE     FIELD)
 LARGEST RESIDUAL MOMENT            1.543E-10   AT NODE          2   DOF  6
   INSTANCE:                                                                                 
 LARGEST INCREMENT OF ROTATION      8.303E-16   AT NODE          2   DOF  5
   INSTANCE: {assembly node}                                                                 
 LARGEST CORRECTION TO ROTATION     8.419E-16   AT NODE          2   DOF  5
   INSTANCE: {assembly node}                                                                 
          THERE IS ZERO MOMENT    EVERYWHERE

 MAXIMUM DIFFERENCE IN CREEP STRAIN INCREMENT IS   2.084E-06

 ITERATION SUMMARY FOR THE INCREMENT:   1 TOTAL ITERATIONS, OF WHICH
   0 ARE SEVERE DISCONTINUITY ITERATIONS AND  1 ARE EQUILIBRIUM ITERATIONS.

 TIME INCREMENT COMPLETED  0.684    ,  FRACTION OF STEP COMPLETED  0.984    
 STEP TIME COMPLETED        106.    ,  TOTAL TIME COMPLETED         106.    


  INCREMENT   102 STARTS. ATTEMPT NUMBER  1, TIME INCREMENT  0.684    

  NUMBER OF EQUATIONS =     2427     NUMBER OF FLOATING PT. OPERATIONS =  7.28E+07

  USING THE DIRECT SOLVER WITH   4 PROCESSORS

     CHECK POINT   START OF SOLVER    

     CHECK POINT  END OF SOLVER       

       ELAPSED USER TIME (SEC)      =  0.10000    
       ELAPSED SYSTEM TIME (SEC)    =   0.0000    
       ELAPSED TOTAL CPU TIME (SEC) =  0.10000    
       ELAPSED WALLCLOCK TIME (SEC) =          0

               CONVERGENCE CHECKS FOR EQUILIBRIUM ITERATION     1


 AVERAGE FORCE                       7.08       TIME AVG. FORCE        3.07    
 LARGEST RESIDUAL FORCE             2.535E-05   AT NODE        205   DOF  3
   INSTANCE: PART-1-1                                                                        
 LARGEST INCREMENT OF DISP.         1.140E-03   AT NODE        848   DOF  1
   INSTANCE: PART-1-1                                                                        
 LARGEST CORRECTION TO DISP.       -2.330E-07   AT NODE        680   DOF  2
   INSTANCE: PART-1-1                                                                        
          THE FORCE     EQUILIBRIUM EQUATIONS HAVE CONVERGED

 AVERAGE MOMENT                      0.00       TIME AVG. MOMENT       1.36    
                                                (FROM FORCE     FIELD)
 LARGEST RESIDUAL MOMENT           -1.703E-10   AT NODE          2   DOF  6
   INSTANCE:                                                                                 
 LARGEST INCREMENT OF ROTATION     -1.027E-15   AT NODE          2   DOF  5
   INSTANCE: {assembly node}                                                                 
 LARGEST CORRECTION TO ROTATION    -1.858E-15   AT NODE          2   DOF  5
   INSTANCE: {assembly node}                                                                 
          THERE IS ZERO MOMENT    EVERYWHERE

 MAXIMUM DIFFERENCE IN CREEP STRAIN INCREMENT IS   2.155E-06
          TIME INCREMENT MAY NOW INCREASE TO     1.07    

 ITERATION SUMMARY FOR THE INCREMENT:   1 TOTAL ITERATIONS, OF WHICH
   0 ARE SEVERE DISCONTINUITY ITERATIONS AND  1 ARE EQUILIBRIUM ITERATIONS.

 TIME INCREMENT COMPLETED  0.684    ,  FRACTION OF STEP COMPLETED  0.990    
 STEP TIME COMPLETED        107.    ,  TOTAL TIME COMPLETED         107.    


  INCREMENT   103 STARTS. ATTEMPT NUMBER  1, TIME INCREMENT   1.07    

  NUMBER OF EQUATIONS =     2427     NUMBER OF FLOATING PT. OPERATIONS =  7.28E+07

  USING THE DIRECT SOLVER WITH   4 PROCESSORS

     CHECK POINT   START OF SOLVER    

     CHECK POINT  END OF SOLVER       

       ELAPSED USER TIME (SEC)      =   0.0000    
       ELAPSED SYSTEM TIME (SEC)    =   0.0000    
       ELAPSED TOTAL CPU TIME (SEC) =   0.0000    
       ELAPSED WALLCLOCK TIME (SEC) =          0

               CONVERGENCE CHECKS FOR EQUILIBRIUM ITERATION     1


 AVERAGE FORCE                       7.11       TIME AVG. FORCE        3.11    
 LARGEST RESIDUAL FORCE            -1.577E-03   AT NODE        706   DOF  3
   INSTANCE: PART-1-1                                                                        
 LARGEST INCREMENT OF DISP.         1.779E-03   AT NODE        846   DOF  1
   INSTANCE: PART-1-1                                                                        
 LARGEST CORRECTION TO DISP.        1.988E-05   AT NODE        686   DOF  2
   INSTANCE: PART-1-1                                                                        
 ESTIMATE OF DISP.    CORRECTION    5.536E-08
 FORCE     EQUILIB. ACCEPTED BASED ON SMALL RESIDUAL AND ESTIMATED CORRECTION

 AVERAGE MOMENT                      0.00       TIME AVG. MOMENT       1.38    
                                                (FROM FORCE     FIELD)
 LARGEST RESIDUAL MOMENT            1.497E-10   AT NODE          2   DOF  6
   INSTANCE:                                                                                 
 LARGEST INCREMENT OF ROTATION      2.326E-15   AT NODE          2   DOF  5
   INSTANCE: {assembly node}                                                                 
 LARGEST CORRECTION TO ROTATION     3.929E-15   AT NODE          2   DOF  5
   INSTANCE: {assembly node}                                                                 
          THERE IS ZERO MOMENT    EVERYWHERE

 MAXIMUM DIFFERENCE IN CREEP STRAIN INCREMENT IS   3.098E-06

 ITERATION SUMMARY FOR THE INCREMENT:   1 TOTAL ITERATIONS, OF WHICH
   0 ARE SEVERE DISCONTINUITY ITERATIONS AND  1 ARE EQUILIBRIUM ITERATIONS.

 TIME INCREMENT COMPLETED   1.07    ,  FRACTION OF STEP COMPLETED   1.00    
 STEP TIME COMPLETED        108.    ,  TOTAL TIME COMPLETED         108.    


          THE ANALYSIS HAS BEEN COMPLETED



     ANALYSIS SUMMARY:
     TOTAL OF        103  INCREMENTS
                      18  CUTBACKS IN AUTOMATIC INCREMENTATION
                     122  ITERATIONS INCLUDING CONTACT ITERATIONS IF PRESENT
                     122  PASSES THROUGH THE EQUATION SOLVER OF WHICH 
                     122  INVOLVE MATRIX DECOMPOSITION, INCLUDING
                       0  DECOMPOSITION(S) OF THE MASS MATRIX
                       1  REORDERING OF EQUATIONS TO MINIMIZE WAVEFRONT
                       0  ADDITIONAL RESIDUAL EVALUATIONS FOR LINE SEARCHES
                       0  ADDITIONAL OPERATOR EVALUATIONS FOR LINE SEARCHES
                       5  WARNING MESSAGES DURING USER INPUT PROCESSING
                       0  WARNING MESSAGES DURING ANALYSIS
                       0  ANALYSIS WARNINGS ARE NUMERICAL PROBLEM MESSAGES
                       0  ANALYSIS WARNINGS ARE NEGATIVE EIGENVALUE MESSAGES
                       0  ERROR MESSAGES



     JOB TIME SUMMARY
       USER TIME (SEC)      =   40.600    
       SYSTEM TIME (SEC)    =   3.7000    
       TOTAL CPU TIME (SEC) =   44.300    
       WALLCLOCK TIME (SEC) =         16
