*Heading
** Job name: Job-DEAD-LIVE-TOTAL Model name: Model-1-prebystep
** Generated by: Abaqus/CAE 6.12-1
*Preprint, echo=NO, model=NO, history=NO, contact=NO
**
** PARTS
**
*Part, name=longgu
*Node
      1,   1312.26758,   2567.57715,           0.
      2,   1317.52246,   2569.08496,           0.
      3,   1317.52246,   2306.85669,   151.397598
      4,   1324.74658,   2305.82031,   153.192673
      5,   1337.22815,   2304.11353,   156.148758
      6,   1349.71191,   2302.48145,   158.975754
      7,   1362.19788,   2300.91553,    161.68782
      8,   1374.68579,   2299.40869,   164.297668
      9,   1387.17554,   2297.95435,   166.816742
     10,   1399.66675,   2296.54663,   169.255188
     11,   1412.15942,   2295.17993,   171.622101
     12,   1424.65332,    2293.8501,   173.925446
     13,   1437.14844,   2292.55298,   176.172287
     14,   1449.64441,   2291.28491,   178.368759
     15,   1462.14136,   2290.04272,   180.520203
     16,   1474.63892,   2288.82397,    182.63118
     17,   1487.13721,   2287.62622,   184.705597
     18,   1499.63586,   2286.44775,   186.746735
     19,   1512.13513,   2285.28711,   188.757309
     20,   1524.63464,   2284.14258,   190.739532
** ... 2107 like lines cut
*Element, type=B31
1, 1, 2
 2,   2, 580
 3, 580, 581
 4, 581, 582
 5, 582, 583
 6, 583, 584
 7, 584, 585
 8, 585, 586
 9, 586, 587
10, 587, 588
11, 588, 589
12, 589, 590
13, 590, 591
14, 591, 592
15, 592, 593
16, 593, 594
17, 594, 595
18, 595, 596
19, 596, 597
20, 597, 598
** ... 2131 like lines cut
*Nset, nset=Set-longgu, generate
    1,  2127,     1
*Elset, elset=Set-longgu, generate
    1,  2151,     1
*Nset, nset=sub_triangle
    2,    3,   28,   29,   56,   57,   88,   89,  120,  121,  148,  149,  174,  175,  188,  189
  190,  203,  206,  219,  220,  234,  261,  292,  345,  406,  502,  580,  581,  582,  583,  584
  585,  586,  587,  588,  589,  590,  591,  592,  593,  594,  595,  596,  597,  598,  599,  600
  601,  602,  603,  604,  605,  606,  607,  608,  609,  610,  611,  612,  613,  614,  615,  616
  617,  618,  619,  620,  621,  622,  623,  624,  625,  626,  627,  628,  629,  630,  631,  632
  633,  634,  635,  636,  637,  638,  639,  640,  641,  642,  643,  644,  645,  646,  647,  648
  649,  650,  651,  652,  653,  654,  655,  656,  657,  658,  659,  660,  661,  662,  663,  664
  665,  666,  667,  668,  669,  670,  671,  672,  673,  674,  675,  676,  677,  678,  679,  680
  681,  682,  683,  684,  685,  686,  687,  688,  689,  690,  691,  692,  693,  694,  695,  696
  697,  698,  699,  700,  701,  702,  703,  704,  705,  706,  707,  708,  709,  710,  711,  712
  713,  714,  715,  716,  717,  718,  719,  720,  721,  722,  723,  724,  725,  726,  727,  728
  729,  730,  731,  732,  733,  734,  735,  736,  737,  738,  739,  740,  741,  742,  743,  744
  745,  746,  747,  748,  749,  750,  751,  752,  753,  754,  755,  756,  757,  758,  759,  760
  761,  762,  763,  764,  765,  766,  767,  768,  769,  770,  771,  772,  773,  774,  775,  776
  777,  778,  779,  780,  781,  782,  783,  784,  785,  786,  787,  788,  789,  790,  791,  792
  793,  794,  795,  796,  797,  798,  799,  800,  801,  802,  803,  804,  805,  806,  807,  808
  809,  810,  811,  812,  813,  814,  815,  816,  817,  818,  819,  820,  821,  822,  823,  824
  825,  826,  827,  828,  829,  830,  831,  832,  833,  834,  835,  836,  837,  838,  839,  840
  841,  842,  843,  844,  845,  846,  847,  848,  849,  850,  851,  852,  853,  854,  855,  856
  857,  858,  859,  860,  861,  862,  863,  864,  865,  866,  867,  868,  869,  870,  871,  872
** ... 79 like lines cut
*Elset, elset=sub_triangle
    2,    3,    4,    5,    6,    7,    8,    9,   10,   11,   12,   13,   14,   15,   16,   17
   18,   19,   20,   21,   22,   23,   24,   25,   26,   27,   28,   29,   30,   31,   32,   33
   34,   35,   36,   37,   38,   39,   40,   41,   42,   43,   44,   45,   46,   47,   48,   74
   75,   76,   77,   78,   79,   80,   81,   82,   83,   84,   85,   86,   87,   88,   89,   90
   91,   92,   93,   94,   95,   96,   97,   98,   99,  100,  101,  102,  103,  104,  105,  106
  107,  108,  109,  110,  111,  112,  113,  114,  115,  116,  117,  118,  119,  120,  121,  122
  123,  124,  125,  126,  127,  128,  129,  130,  131,  132,  133,  134,  135,  136,  137,  138
  166,  167,  168,  169,  170,  171,  172,  173,  174,  175,  176,  177,  178,  179,  180,  181
  182,  183,  184,  185,  186,  187,  188,  189,  190,  191,  192,  193,  194,  195,  196,  197
  198,  199,  200,  201,  202,  203,  204,  205,  206,  207,  208,  209,  210,  211,  212,  213
  214,  215,  216,  217,  218,  219,  220,  221,  222,  223,  224,  225,  226,  227,  228,  229
  230,  231,  232,  233,  234,  235,  236,  237,  238,  239,  240,  241,  242,  274,  275,  276
  277,  278,  279,  280,  281,  282,  283,  284,  285,  286,  287,  288,  289,  290,  291,  292
  293,  294,  295,  296,  297,  298,  299,  300,  301,  302,  303,  304,  305,  306,  307,  308
  309,  310,  311,  312,  313,  314,  315,  316,  317,  318,  319,  320,  321,  322,  323,  324
  325,  326,  327,  328,  329,  330,  331,  332,  333,  334,  335,  336,  337,  338,  339,  340
  341,  342,  343,  344,  345,  346,  347,  348,  349,  350,  351,  352,  353,  354,  355,  356
  357,  389,  390,  391,  392,  393,  394,  395,  396,  397,  398,  399,  400,  401,  402,  403
  404,  405,  406,  407,  408,  409,  410,  411,  412,  413,  414,  415,  416,  417,  418,  419
  420,  421,  422,  423,  424,  425,  426,  427,  428,  429,  430,  431,  432,  433,  434,  435
** ... 79 like lines cut
*Nset, nset=sub_genetrix, generate
   1,  579,    1
*Elset, elset=sub_genetrix
    1,   49,   50,   51,   52,   53,   54,   55,   56,   57,   58,   59,   60,   61,   62,   63
   64,   65,   66,   67,   68,   69,   70,   71,   72,   73,  139,  140,  141,  142,  143,  144
  145,  146,  147,  148,  149,  150,  151,  152,  153,  154,  155,  156,  157,  158,  159,  160
  161,  162,  163,  164,  165,  243,  244,  245,  246,  247,  248,  249,  250,  251,  252,  253
  254,  255,  256,  257,  258,  259,  260,  261,  262,  263,  264,  265,  266,  267,  268,  269
  270,  271,  272,  273,  358,  359,  360,  361,  362,  363,  364,  365,  366,  367,  368,  369
  370,  371,  372,  373,  374,  375,  376,  377,  378,  379,  380,  381,  382,  383,  384,  385
  386,  387,  388,  472,  473,  474,  475,  476,  477,  478,  479,  480,  481,  482,  483,  484
  485,  486,  487,  488,  489,  490,  491,  492,  493,  494,  495,  496,  497,  498,  571,  572
  573,  574,  575,  576,  577,  578,  579,  580,  581,  582,  583,  584,  585,  586,  587,  588
  589,  590,  591,  592,  593,  594,  595,  646,  647,  648,  649,  650,  651,  652,  653,  654
  655,  656,  657,  658,  711,  712,  713,  714,  715,  716,  717,  718,  719,  720,  721,  722
  723,  774,  775,  823,  824,  825,  826,  827,  828,  829,  830,  831,  832,  833,  834,  835
  857,  858,  859,  860,  861,  862,  863,  864,  865,  866,  867,  868,  869,  917,  983,  984
  985,  986,  987,  988,  989,  990,  991,  992,  993,  994,  995,  996,  997,  998,  999, 1000
 1001, 1002, 1003, 1004, 1005, 1006, 1007, 1008, 1009, 1010, 1011, 1012, 1013, 1014, 1015, 1016
 1017, 1018, 1019, 1020, 1021, 1022, 1023, 1024, 1025, 1026, 1027, 1028, 1029, 1030, 1031, 1032
 1033, 1034, 1035, 1036, 1037, 1038, 1039, 1040, 1190, 1191, 1192, 1193, 1194, 1195, 1196, 1197
 1198, 1199, 1200, 1201, 1202, 1203, 1204, 1205, 1206, 1207, 1208, 1209, 1210, 1211, 1212, 1213
 1214, 1215, 1370, 1371, 1372, 1373, 1374, 1375, 1376, 1377, 1378, 1379, 1380, 1381, 1382, 1383
** ... 16 like lines cut
*Nset, nset=gen_z
   1,   2,  29,  30,  31,  32,  33,  34,  35,  36,  37,  38,  39,  40,  41,  42
  43,  44,  45,  46,  47,  48,  49,  50,  51,  52,  53,  54,  55,  56,  89,  90
  91,  92,  93,  94,  95,  96,  97,  98,  99, 100, 101, 102, 103, 104, 105, 106
 107, 108, 109, 110, 111, 112, 113, 114, 115, 116, 117, 118, 119, 120, 149, 150
 151, 152, 153, 154, 155, 156, 157, 158, 159, 160, 161, 162, 163, 164, 165, 166
 167, 168, 169, 170, 171, 172, 173, 174, 189, 204, 205, 317, 344, 480, 481, 482
 483, 484, 485, 486, 487, 488, 489, 490, 491, 492, 493, 494, 495, 496, 497, 498
 499, 500, 501, 502, 503, 504, 505, 506, 507, 508, 509, 510, 511, 512, 513, 514
 515, 516, 517, 518, 519, 520, 521, 522, 523, 524, 525, 526, 527, 528, 529, 530
 531, 532, 533, 534, 535, 536, 537, 538, 539, 540, 541, 542, 543, 544, 545, 546
 547, 548, 549, 550, 551, 552, 553, 554, 555, 556, 557, 558, 559, 560, 561, 562
 563, 564, 565, 566, 567, 568, 569, 570, 571, 572, 573, 574, 575, 576, 577, 578
 579,
*Elset, elset=gen_z
    1,  139,  140,  141,  142,  143,  144,  145,  146,  147,  148,  149,  150,  151,  152,  153
  154,  155,  156,  157,  158,  159,  160,  161,  162,  163,  164,  165,  358,  359,  360,  361
  362,  363,  364,  365,  366,  367,  368,  369,  370,  371,  372,  373,  374,  375,  376,  377
  378,  379,  380,  381,  382,  383,  384,  385,  386,  387,  388,  571,  572,  573,  574,  575
  576,  577,  578,  579,  580,  581,  582,  583,  584,  585,  586,  587,  588,  589,  590,  591
  592,  593,  594,  595,  774,  775, 1215, 1481, 1980, 2007, 2008, 2009, 2010, 2011, 2012, 2013
 2014, 2015, 2016, 2017, 2018, 2019, 2020, 2021, 2022, 2023, 2024, 2025, 2026, 2027, 2028, 2029
 2051, 2073, 2074, 2075, 2076, 2077, 2078, 2079, 2080, 2081, 2082, 2083, 2084, 2085, 2086, 2087
 2088, 2089, 2090, 2091, 2092, 2093, 2094, 2095, 2096, 2097, 2098, 2099, 2100, 2101, 2102, 2103
 2104, 2105, 2106, 2107, 2108, 2109, 2110, 2111, 2112, 2113, 2114, 2115, 2116, 2117, 2118, 2119
 2120, 2121, 2122, 2123, 2124, 2125, 2126, 2127, 2128, 2129, 2130, 2131, 2132, 2133, 2134, 2135
 2136, 2137, 2138, 2139, 2140, 2141, 2142, 2143, 2144, 2145, 2146, 2147, 2148, 2149, 2150, 2151
*Nset, nset=gen_x1
 190, 191, 192, 193, 194, 195, 196, 197, 198, 199, 200, 201, 202, 203, 206, 207
 208, 209, 210, 211, 212, 213, 214, 215, 216, 217, 218, 219, 234, 235, 236, 237
 238, 239, 240, 241, 242, 243, 244, 245, 246, 247, 248, 249, 250, 251, 252, 253
 254, 255, 256, 257, 258, 259, 260, 261, 262, 263, 264, 265, 266, 267, 268, 269
 270, 271, 272, 273, 274, 275, 276, 277, 278, 279, 280, 281, 282, 283, 284, 285
 286, 287, 288, 289, 290, 291, 292, 293, 294, 295, 296, 297, 298, 299, 300, 301
 302, 303, 304, 305, 306, 307, 308, 309, 310, 311, 312, 313, 314, 315, 316, 345
 346, 347, 348, 349, 350, 351, 352, 353, 354, 355, 356, 357, 358, 359, 360, 361
 362, 363, 364, 365, 366, 367, 368, 369, 370, 371, 372, 373, 374, 375, 406, 407
 408, 409, 410, 411, 412, 413, 414, 415, 416, 417, 418, 419, 420, 421, 422, 423
 424, 425, 426, 427, 428, 429, 430, 454, 455, 456, 457, 458, 459, 460, 461, 462
 463, 464, 465, 466, 467, 468, 469, 470, 471, 472, 473, 474, 475, 476, 477, 478
 479,
*Elset, elset=gen_x1
  711,  712,  713,  714,  715,  716,  717,  718,  719,  720,  721,  722,  723,  823,  824,  825
  826,  827,  828,  829,  830,  831,  832,  833,  834,  835,  983,  984,  985,  986,  987,  988
  989,  990,  991,  992,  993,  994,  995,  996,  997,  998,  999, 1000, 1001, 1002, 1003, 1004
 1005, 1006, 1007, 1008, 1009, 1010, 1011, 1012, 1013, 1014, 1015, 1016, 1017, 1018, 1019, 1020
 1021, 1022, 1023, 1024, 1025, 1026, 1027, 1028, 1029, 1030, 1031, 1032, 1033, 1034, 1035, 1036
 1037, 1038, 1039, 1040, 1190, 1191, 1192, 1193, 1194, 1195, 1196, 1197, 1198, 1199, 1200, 1201
 1202, 1203, 1204, 1205, 1206, 1207, 1208, 1209, 1210, 1211, 1212, 1213, 1214, 1565, 1566, 1567
 1568, 1569, 1570, 1571, 1572, 1573, 1574, 1575, 1576, 1577, 1578, 1579, 1580, 1581, 1582, 1583
 1584, 1585, 1586, 1587, 1588, 1589, 1590, 1591, 1592, 1593, 1594, 1595, 1782, 1783, 1784, 1785
 1786, 1787, 1788, 1789, 1790, 1791, 1792, 1793, 1794, 1795, 1796, 1797, 1798, 1799, 1800, 1801
 1802, 1803, 1804, 1805, 1806, 1953, 1954, 1955, 1956, 1957, 1958, 1959, 1960, 1961, 1962, 1963
 1964, 1965, 1966, 1967, 1968, 1969, 1970, 1971, 1972, 1973, 1974, 1975, 1976, 1977, 1978, 1979
*Nset, nset=gen_x2
   3,   4,   5,   6,   7,   8,   9,  10,  11,  12,  13,  14,  15,  16,  17,  18
  19,  20,  21,  22,  23,  24,  25,  26,  27,  28,  57,  58,  59,  60,  61,  62
  63,  64,  65,  66,  67,  68,  69,  70,  71,  72,  73,  74,  75,  76,  77,  78
  79,  80,  81,  82,  83,  84,  85,  86,  87,  88, 121, 122, 123, 124, 125, 126
 127, 128, 129, 130, 131, 132, 133, 134, 135, 136, 137, 138, 139, 140, 141, 142
 143, 144, 145, 146, 147, 148, 175, 176, 177, 178, 179, 180, 181, 182, 183, 184
 185, 186, 187, 188, 220, 221, 222, 223, 224, 225, 226, 227, 228, 229, 230, 231
 232, 233, 318, 319, 320, 321, 322, 323, 324, 325, 326, 327, 328, 329, 330, 331
 332, 333, 334, 335, 336, 337, 338, 339, 340, 341, 342, 343, 376, 377, 378, 379
 380, 381, 382, 383, 384, 385, 386, 387, 388, 389, 390, 391, 392, 393, 394, 395
 396, 397, 398, 399, 400, 401, 402, 403, 404, 405, 431, 432, 433, 434, 435, 436
 437, 438, 439, 440, 441, 442, 443, 444, 445, 446, 447, 448, 449, 450, 451, 452
 453,
*Elset, elset=gen_x2
   49,   50,   51,   52,   53,   54,   55,   56,   57,   58,   59,   60,   61,   62,   63,   64
   65,   66,   67,   68,   69,   70,   71,   72,   73,  243,  244,  245,  246,  247,  248,  249
  250,  251,  252,  253,  254,  255,  256,  257,  258,  259,  260,  261,  262,  263,  264,  265
  266,  267,  268,  269,  270,  271,  272,  273,  472,  473,  474,  475,  476,  477,  478,  479
  480,  481,  482,  483,  484,  485,  486,  487,  488,  489,  490,  491,  492,  493,  494,  495
  496,  497,  498,  646,  647,  648,  649,  650,  651,  652,  653,  654,  655,  656,  657,  658
  857,  858,  859,  860,  861,  862,  863,  864,  865,  866,  867,  868,  869,  917, 1370, 1371
 1372, 1373, 1374, 1375, 1376, 1377, 1378, 1379, 1380, 1381, 1382, 1383, 1384, 1385, 1386, 1387
 1388, 1389, 1390, 1391, 1392, 1393, 1394, 1395, 1396, 1679, 1680, 1681, 1682, 1683, 1684, 1685
 1686, 1687, 1688, 1689, 1690, 1691, 1692, 1693, 1694, 1695, 1696, 1697, 1698, 1699, 1700, 1701
 1702, 1703, 1704, 1705, 1706, 1707, 1708, 1709, 1857, 1858, 1859, 1860, 1861, 1862, 1863, 1864
 1865, 1866, 1867, 1868, 1869, 1870, 1871, 1872, 1873, 1874, 1875, 1876, 1877, 1878, 1879, 1880
** Region: (S-genetrix:sub_genetrix), (Beam Orientation:gen_z)
*Elset, elset=_I1, internal
    1,  139,  140,  141,  142,  143,  144,  145,  146,  147,  148,  149,  150,  151,  152,  153
  154,  155,  156,  157,  158,  159,  160,  161,  162,  163,  164,  165,  358,  359,  360,  361
  362,  363,  364,  365,  366,  367,  368,  369,  370,  371,  372,  373,  374,  375,  376,  377
  378,  379,  380,  381,  382,  383,  384,  385,  386,  387,  388,  571,  572,  573,  574,  575
  576,  577,  578,  579,  580,  581,  582,  583,  584,  585,  586,  587,  588,  589,  590,  591
  592,  593,  594,  595,  774,  775, 1215, 1481, 1980, 2007, 2008, 2009, 2010, 2011, 2012, 2013
 2014, 2015, 2016, 2017, 2018, 2019, 2020, 2021, 2022, 2023, 2024, 2025, 2026, 2027, 2028, 2029
 2051, 2073, 2074, 2075, 2076, 2077, 2078, 2079, 2080, 2081, 2082, 2083, 2084, 2085, 2086, 2087
 2088, 2089, 2090, 2091, 2092, 2093, 2094, 2095, 2096, 2097, 2098, 2099, 2100, 2101, 2102, 2103
 2104, 2105, 2106, 2107, 2108, 2109, 2110, 2111, 2112, 2113, 2114, 2115, 2116, 2117, 2118, 2119
 2120, 2121, 2122, 2123, 2124, 2125, 2126, 2127, 2128, 2129, 2130, 2131, 2132, 2133, 2134, 2135
 2136, 2137, 2138, 2139, 2140, 2141, 2142, 2143, 2144, 2145, 2146, 2147, 2148, 2149, 2150, 2151
** Section: S-genetrix  Profile: P-genetrix
*Beam Section, elset=_I1, material=M-longgu, temperature=GRADIENTS, section=CIRC
2.
0.,0.,-1.
** Section: S-triangle  Profile: P-triangle
*Beam Section, elset=sub_triangle, material=M-longgu, temperature=GRADIENTS, section=CIRC
1.5
1.,0.,0.
** Region: (S-genetrix:sub_genetrix), (Beam Orientation:gen_x2)
*Elset, elset=_I3, internal
   49,   50,   51,   52,   53,   54,   55,   56,   57,   58,   59,   60,   61,   62,   63,   64
   65,   66,   67,   68,   69,   70,   71,   72,   73,  243,  244,  245,  246,  247,  248,  249
  250,  251,  252,  253,  254,  255,  256,  257,  258,  259,  260,  261,  262,  263,  264,  265
  266,  267,  268,  269,  270,  271,  272,  273,  472,  473,  474,  475,  476,  477,  478,  479
  480,  481,  482,  483,  484,  485,  486,  487,  488,  489,  490,  491,  492,  493,  494,  495
  496,  497,  498,  646,  647,  648,  649,  650,  651,  652,  653,  654,  655,  656,  657,  658
  857,  858,  859,  860,  861,  862,  863,  864,  865,  866,  867,  868,  869,  917, 1370, 1371
 1372, 1373, 1374, 1375, 1376, 1377, 1378, 1379, 1380, 1381, 1382, 1383, 1384, 1385, 1386, 1387
 1388, 1389, 1390, 1391, 1392, 1393, 1394, 1395, 1396, 1679, 1680, 1681, 1682, 1683, 1684, 1685
 1686, 1687, 1688, 1689, 1690, 1691, 1692, 1693, 1694, 1695, 1696, 1697, 1698, 1699, 1700, 1701
 1702, 1703, 1704, 1705, 1706, 1707, 1708, 1709, 1857, 1858, 1859, 1860, 1861, 1862, 1863, 1864
 1865, 1866, 1867, 1868, 1869, 1870, 1871, 1872, 1873, 1874, 1875, 1876, 1877, 1878, 1879, 1880
** Section: S-genetrix  Profile: P-genetrix
*Beam Section, elset=_I3, material=M-longgu, temperature=GRADIENTS, section=CIRC
2.
0.,1.732,1.
** Region: (S-genetrix:sub_genetrix), (Beam Orientation:gen_x1)
*Elset, elset=_I4, internal
  711,  712,  713,  714,  715,  716,  717,  718,  719,  720,  721,  722,  723,  823,  824,  825
  826,  827,  828,  829,  830,  831,  832,  833,  834,  835,  983,  984,  985,  986,  987,  988
  989,  990,  991,  992,  993,  994,  995,  996,  997,  998,  999, 1000, 1001, 1002, 1003, 1004
 1005, 1006, 1007, 1008, 1009, 1010, 1011, 1012, 1013, 1014, 1015, 1016, 1017, 1018, 1019, 1020
 1021, 1022, 1023, 1024, 1025, 1026, 1027, 1028, 1029, 1030, 1031, 1032, 1033, 1034, 1035, 1036
 1037, 1038, 1039, 1040, 1190, 1191, 1192, 1193, 1194, 1195, 1196, 1197, 1198, 1199, 1200, 1201
 1202, 1203, 1204, 1205, 1206, 1207, 1208, 1209, 1210, 1211, 1212, 1213, 1214, 1565, 1566, 1567
 1568, 1569, 1570, 1571, 1572, 1573, 1574, 1575, 1576, 1577, 1578, 1579, 1580, 1581, 1582, 1583
 1584, 1585, 1586, 1587, 1588, 1589, 1590, 1591, 1592, 1593, 1594, 1595, 1782, 1783, 1784, 1785
 1786, 1787, 1788, 1789, 1790, 1791, 1792, 1793, 1794, 1795, 1796, 1797, 1798, 1799, 1800, 1801
 1802, 1803, 1804, 1805, 1806, 1953, 1954, 1955, 1956, 1957, 1958, 1959, 1960, 1961, 1962, 1963
 1964, 1965, 1966, 1967, 1968, 1969, 1970, 1971, 1972, 1973, 1974, 1975, 1976, 1977, 1978, 1979
** Section: S-genetrix  Profile: P-genetrix
*Beam Section, elset=_I4, material=M-longgu, temperature=GRADIENTS, section=CIRC
2.
0.,1.732,-1.
*End Part
**  
*Part, name=thread1
*Node
      1,   1167.52246,   2338.90161,    95.894104
      2,   1317.52246,   2306.85669,  -151.397598
      3,   1617.52246,   2276.08545,   204.694763
      4,   1317.52246,   2569.08496,           0.
      5,   1937.52246,   2254.92505,  -241.345963
      6,   1937.52246,   2672.94849,           0.
      7,   2317.52246,    2243.5061,   261.123901
      8,   2697.52246,   2244.06055,  -260.163605
      9,   3017.52246,   2262.32178,   228.534088
     10,   2697.52246,   2694.67725,           0.
     11,   3317.52246,   2298.65723,  -165.599426
     12,   3317.52246,   2585.48389,           0.
     13,   3467.52246,    2336.0957,    100.75415
*Element, type=T3D2
1, 1, 2
2, 2, 3
3, 4, 3
4, 1, 4
5, 3, 5
6, 3, 6
7, 6, 7
8, 7, 8
 9, 8, 9
10, 10,  9
11,  7, 10
12, 5, 7
13,  9, 11
14,  9, 12
15, 12, 13
16, 11, 13
*Nset, nset=Set-thread1, generate
  1,  13,   1
*Elset, elset=Set-thread1, generate
  1,  16,   1
** Section: S-thread
*Solid Section, elset=Set-thread1, material=M-thread
0.1257,
*End Part
**  
*Part, name=thread2
*Node
      1,   1167.52246,   2504.99512,           0.
      2,   1317.52246,   2306.85669,   151.397598
      3,   1617.52246,    2630.6272,           0.
      4,   1317.52246,   2306.85669,  -151.397598
      5,   1937.52246,   2254.92505,   241.345963
      6,   1937.52246,   2254.92505,  -241.345963
      7,   2317.52246,   2695.78589,           0.
      8,   2697.52246,   2244.06055,   260.163605
      9,   3017.52246,   2658.15454,           0.
     10,   2697.52246,   2244.06055,  -260.163605
     11,   3317.52246,   2298.65723,   165.599426
     12,   3317.52246,   2298.65723,  -165.599426
     13,   3467.52246,   2510.60693,           0.
*Element, type=T3D2
1, 1, 2
2, 2, 3
3, 4, 3
4, 1, 4
5, 3, 5
6, 3, 6
7, 6, 7
8, 7, 8
 9, 8, 9
10, 10,  9
11,  7, 10
12, 5, 7
13,  9, 11
14,  9, 12
15, 12, 13
16, 11, 13
*Nset, nset=Set-thread2, generate
  1,  13,   1
*Elset, elset=Set-thread2, generate
  1,  16,   1
** Section: S-thread
*Solid Section, elset=Set-thread2, material=M-thread
0.1257,
*End Part
**  
*Part, name=thread3
*Node
      1,   1167.52246,   2338.90161,   -95.894104
      2,   1317.52246,   2306.85669,   151.397598
      3,   1617.52246,   2276.08545,  -204.694763
      4,   1317.52246,   2569.08496,           0.
      5,   1937.52246,   2254.92505,   241.345963
      6,   1937.52246,   2672.94849,           0.
      7,   2317.52246,    2243.5061,  -261.123901
      8,   2697.52246,   2244.06055,   260.163605
      9,   3017.52246,   2262.32178,  -228.534088
     10,   2697.52246,   2694.67725,           0.
     11,   3317.52246,   2298.65723,   165.599426
     12,   3317.52246,   2585.48389,           0.
     13,   3467.52246,    2336.0957,   -100.75415
*Element, type=T3D2
1, 1, 2
2, 2, 3
3, 4, 3
4, 1, 4
5, 3, 5
6, 3, 6
7, 6, 7
8, 7, 8
 9, 8, 9
10, 10,  9
11,  7, 10
12, 5, 7
13,  9, 11
14,  9, 12
15, 12, 13
16, 11, 13
*Nset, nset=Set-thread3, generate
  1,  13,   1
*Elset, elset=Set-thread3, generate
  1,  16,   1
** Section: S-thread
*Solid Section, elset=Set-thread3, material=M-thread
0.1257,
*End Part
**  
**
** ASSEMBLY
**
*Assembly, name=Assembly
**  
*Instance, name=longgu-1, part=longgu
*End Instance
**  
*Instance, name=thread1-1, part=thread1
*End Instance
**  
*Instance, name=thread2-1, part=thread2
*End Instance
**  
*Instance, name=thread3-1, part=thread3
*End Instance
**  
*Nset, nset=tie_master, instance=longgu-1
   2,   3,  28,  29,  56,  57,  88,  89, 120, 121, 148, 149, 174, 175, 188, 189
 190, 203, 206, 219, 220, 234, 261, 292, 345, 406, 502
*Nset, nset=tie_slave, instance=thread1-1, generate
  1,  13,   1
*Nset, nset=tie_slave, instance=thread2-1, generate
  1,  13,   1
*Nset, nset=tie_slave, instance=thread3-1, generate
  1,  13,   1
*Nset, nset=PT-1, instance=thread1-1, generate
 11,  13,   1
*Nset, nset=PT-1, instance=thread2-1, generate
 11,  13,   1
*Nset, nset=PT-1, instance=thread3-1, generate
 11,  13,   1
*Elset, elset=PT-1, instance=thread1-1
 15, 16
*Elset, elset=PT-1, instance=thread2-1
 15, 16
*Elset, elset=PT-1, instance=thread3-1
 15, 16
*Nset, nset=PT-2, instance=thread1-1
  9, 11, 12
*Nset, nset=PT-2, instance=thread2-1
  9, 11, 12
*Nset, nset=PT-2, instance=thread3-1
  9, 11, 12
*Elset, elset=PT-2, instance=thread1-1
 13, 14
*Elset, elset=PT-2, instance=thread2-1
 13, 14
*Elset, elset=PT-2, instance=thread3-1
 13, 14
*Nset, nset=PT-3, instance=thread1-1, generate
  8,  10,   1
*Nset, nset=PT-3, instance=thread2-1, generate
  8,  10,   1
*Nset, nset=PT-3, instance=thread3-1, generate
  8,  10,   1
*Elset, elset=PT-3, instance=thread1-1
  9, 10
*Elset, elset=PT-3, instance=thread2-1
  9, 10
*Elset, elset=PT-3, instance=thread3-1
  9, 10
*Nset, nset=PT-4, instance=thread1-1
  7,  8, 10
*Nset, nset=PT-4, instance=thread2-1
  7,  8, 10
*Nset, nset=PT-4, instance=thread3-1
  7,  8, 10
*Elset, elset=PT-4, instance=thread1-1
  8, 11
*Elset, elset=PT-4, instance=thread2-1
  8, 11
*Elset, elset=PT-4, instance=thread3-1
  8, 11
*Nset, nset=PT-5, instance=thread1-1, generate
 5,  7,  1
*Nset, nset=PT-5, instance=thread2-1, generate
 5,  7,  1
*Nset, nset=PT-5, instance=thread3-1, generate
 5,  7,  1
*Elset, elset=PT-5, instance=thread1-1
  7, 12
*Elset, elset=PT-5, instance=thread2-1
  7, 12
*Elset, elset=PT-5, instance=thread3-1
  7, 12
*Nset, nset=PT-6, instance=thread1-1
 3, 5, 6
*Nset, nset=PT-6, instance=thread2-1
 3, 5, 6
*Nset, nset=PT-6, instance=thread3-1
 3, 5, 6
*Elset, elset=PT-6, instance=thread1-1
 5, 6
*Elset, elset=PT-6, instance=thread2-1
 5, 6
*Elset, elset=PT-6, instance=thread3-1
 5, 6
*Nset, nset=PT-7, instance=thread1-1, generate
 2,  4,  1
*Nset, nset=PT-7, instance=thread2-1, generate
 2,  4,  1
*Nset, nset=PT-7, instance=thread3-1, generate
 2,  4,  1
*Elset, elset=PT-7, instance=thread1-1
 2, 3
*Elset, elset=PT-7, instance=thread2-1
 2, 3
*Elset, elset=PT-7, instance=thread3-1
 2, 3
*Nset, nset=PT-8, instance=thread1-1
 1, 2, 4
*Nset, nset=PT-8, instance=thread2-1
 1, 2, 4
*Nset, nset=PT-8, instance=thread3-1
 1, 2, 4
*Elset, elset=PT-8, instance=thread1-1
 1, 4
*Elset, elset=PT-8, instance=thread2-1
 1, 4
*Elset, elset=PT-8, instance=thread3-1
 1, 4
*Nset, nset=Fix_B, instance=longgu-1
 149,
*Nset, nset=Fix_L, instance=longgu-1
 29,
*Nset, nset=Load_P, instance=longgu-1
  88, 292
*Nset, nset=pBoundary, instance=longgu-1, generate
 188,  190,    1
*Nset, nset=pt_step2, instance=longgu-1
 148, 149, 406
*Surface, type=NODE, name=tie_master_CNS_, internal
tie_master, 1.
*Surface, type=NODE, name=tie_slave_CNS_, internal
tie_slave, 1.
** Constraint: Constraint-1
*Tie, name=Constraint-1, adjust=yes, position tolerance=0.01, no rotation
tie_slave_CNS_, tie_master_CNS_
*End Assembly
** 
** MATERIALS
** 
*Material, name=M-longgu
*Density
 1.415e-09,
*Elastic
118000., 0.3
*Material, name=M-thread
*Density
 7.8e-09,
*Elastic
45364., 0.25
*No Compression
*Expansion
 1e-05,
** 
** BOUNDARY CONDITIONS
** 
** Name: Fix_1 Type: /
*Boundary
pBoundary, 1, 1
pBoundary, 2, 2
pBoundary, 3, 3
** 
** PREDEFINED FIELDS
** 
** Name: PF-1   Type: Temperature
*Initial Conditions, type=TEMPERATURE
PT-1, 0.
** Name: PF-2   Type: Temperature
*Initial Conditions, type=TEMPERATURE
PT-2, 0.
** Name: PF-3   Type: Temperature
*Initial Conditions, type=TEMPERATURE
PT-3, 0.
** Name: PF-4   Type: Temperature
*Initial Conditions, type=TEMPERATURE
PT-4, 0.
** Name: PF-5   Type: Temperature
*Initial Conditions, type=TEMPERATURE
PT-5, 0.
** Name: PF-6   Type: Temperature
*Initial Conditions, type=TEMPERATURE
PT-6, 0.
** Name: PF-7   Type: Temperature
*Initial Conditions, type=TEMPERATURE
PT-7, 0.
** Name: PF-8   Type: Temperature
*Initial Conditions, type=TEMPERATURE
PT-8, 0.
** ----------------------------------------------------------------
** 
** STEP: pre
** 
*Step, name=pre, nlgeom=YES, inc=1500
*Static
0.01, 1., 1e-08, 1.
** 
** LOADS
** 
** Name: G_load1   Type: Gravity
*Dload
, GRAV, 9870., -1., 0., 0.
** 
** PREDEFINED FIELDS
** 
** Name: PF-1   Type: Temperature
*Temperature
PT-1, -134.553
** 
** OUTPUT REQUESTS
** 
*Restart, write, frequency=0
*Output, field, frequency=0
*Output, history, frequency=0
*model change, remove
PT-2
*model change, remove
PT-3
*model change, remove
PT-4
*model change, remove
PT-5
*model change, remove
PT-6
*model change, remove
PT-7
*model change, remove
PT-8
*End Step
** ----------------------------------------------------------------
** 
** STEP: pre-2
** 
*Step, name=pre-2, nlgeom=YES, inc=1500
*Static
0.01, 1., 1e-08, 1.
** 
** PREDEFINED FIELDS
** 
** Name: PF-2   Type: Temperature
*Temperature
PT-2, -220.656
** 
** OUTPUT REQUESTS
** 
*Restart, write, frequency=0
*Output, field, frequency=0
*Output, history, frequency=0
*model change, add
PT-2
*End Step
** ----------------------------------------------------------------
** 
** STEP: pre-3
** 
*Step, name=pre-3, nlgeom=YES, inc=1500
*Static
0.01, 1., 1e-08, 1.
** 
** PREDEFINED FIELDS
** 
** Name: PF-3   Type: Temperature
*Temperature
PT-3, -270.381
** 
** OUTPUT REQUESTS
** 
*Restart, write, frequency=0
*Output, field, frequency=0
*Output, history, frequency=0
*model change, add
PT-3
*End Step
** ----------------------------------------------------------------
** 
** STEP: pre-4
** 
*Step, name=pre-4, nlgeom=YES, inc=1500
*Static
0.01, 1., 1e-08, 1.
** 
** PREDEFINED FIELDS
** 
** Name: PF-4   Type: Temperature
*Temperature
PT-4, -304.899
** 
** OUTPUT REQUESTS
** 
*Restart, write, frequency=0
*Output, field, frequency=0
*Output, history, frequency=0
*model change, add
PT-4
*End Step
** ----------------------------------------------------------------
** 
** STEP: pre-5
** 
*Step, name=pre-5, nlgeom=YES, inc=1500
*Static
0.01, 1., 1e-08, 1.
** 
** PREDEFINED FIELDS
** 
** Name: PF-5   Type: Temperature
*Temperature
PT-5, -320.239
** 
** OUTPUT REQUESTS
** 
*Restart, write, frequency=0
*Output, field, frequency=0
*Output, history, frequency=0
*model change, add
PT-5
*End Step
** ----------------------------------------------------------------
** 
** STEP: pre-6
** 
*Step, name=pre-6, nlgeom=YES, inc=1500
*Static
0.01, 1., 1e-08, 1.
** 
** PREDEFINED FIELDS
** 
** Name: PF-6   Type: Temperature
*Temperature
PT-6, -334.075
** 
** OUTPUT REQUESTS
** 
*Restart, write, frequency=0
*Output, field, frequency=0
*Output, history, frequency=0
*model change, add
PT-6
*End Step
** ----------------------------------------------------------------
** 
** STEP: pre-7
** 
*Step, name=pre-7, nlgeom=YES, inc=1500
*Static
0.01, 1., 1e-08, 1.
** 
** PREDEFINED FIELDS
** 
** Name: PF-7   Type: Temperature
*Temperature
PT-7, -339.458
** 
** OUTPUT REQUESTS
** 
*Restart, write, frequency=0
** 
** FIELD OUTPUT: F-Output-1
** 
*Output, field, frequency=99999
*Element Output, directions=YES
S, 
** 
** HISTORY OUTPUT: H-Output-1
** 
*Output, history, frequency=99999
*Energy Output
ETOTAL, 
*model change, add
PT-7
*End Step
** ----------------------------------------------------------------
** 
** STEP: pre-8
** 
*Step, name=pre-8, nlgeom=YES, inc=1500
*Static
0.01, 1., 1e-08, 1.
** 
** PREDEFINED FIELDS
** 
** Name: PF-8   Type: Temperature
*Temperature
PT-8, -172.13645754342653
** 
** OUTPUT REQUESTS
** 
*Restart, write, frequency=0
** 
** FIELD OUTPUT: F-Output-1
** 
*Output, field, frequency=99999
*Element Output, directions=YES
S, 
** 
** HISTORY OUTPUT: H-Output-1
** 
*Output, history, frequency=99999
*Energy Output
ETOTAL, 
*model change, add
PT-8
*End Step
